TLTK/Dynamic Thay Huy/Vi du minh hoa/Vd 11 - Voltage collapse/Vn 2015/d16_RL_xxxvn_snap_at1.raw
0,   100.00, 33, 0, 1, 50.00     / PSS(R)E-33.4    SUN, AUG 02 2020   9:25
PHU TAI CUC DAI - MUA NUOC - NAM 2011
CHE DO VAN HANH BINH THUONG
  1062,'THANHCON    ', 220.0000,1,   6,   1,   1,1.00433, -12.3752,1.10000,0.90000,1.10000,0.90000
  1742,'SONLA220    ', 220.0000,1,   6,   1,   1,1.04437,   4.4837,1.10000,0.90000,1.10000,0.90000
  2013,'HT_AT2      ',  35.0000,1,  90,   1,   1,1.00202, -21.0026,1.10000,0.90000,1.10000,0.90000
  3082,'BIMSON      ', 220.0000,1,   6,   1,   1,0.98656, -14.7642,1.10000,0.90000,1.10000,0.90000
  3153,'DOCSOI      ',  35.0000,1,  90,   1,   1,1.01352, -33.1238,1.10000,0.90000,1.10000,0.90000
  3510,'SONDONG_    ',  10.5000,2,  11,   1,   1,1.00000,   3.4184,1.10000,0.90000,1.10000,0.90000
  3520,'SONGDONG    ',  10.5000,2,  11,   1,   1,1.00000,   3.4184,1.10000,0.90000,1.10000,0.90000
  3522,'NDSONDON    ', 220.0000,1,   6,   1,   1,1.04617,  -1.9931,1.10000,0.90000,1.10000,0.90000
  4103,'TD_AT1      ',  35.0000,4,  90,   1,   1,1.00000,   0.0000,1.10000,0.90000,1.10000,0.90000
  4663,'PM_AT2      ',  35.0000,4,  90,   1,   1,1.00000,   0.0000,1.10000,0.90000,1.10000,0.90000
  4822,'VANTRI      ', 220.0000,1,   6,   1,   1,1.00476, -11.3743,1.10000,0.90000,1.10000,0.90000
  6102,'DUCTRONG    ', 220.0000,1,  55,   1,   1,1.00768, -32.9260,1.10000,0.90000,1.10000,0.90000
  7152,'MA_GUAN     ', 220.0000,2,  91,   1,   1,1.04500,   2.7456,1.10000,0.90000,1.10000,0.90000
  9002,'TAMKY       ', 220.0000,1,  75,   1,   1,1.01897, -32.6487,1.10000,0.90000,1.10000,0.90000
  9012,'DUC PHO     ', 220.0000,1,   8,   1,   1,0.98907, -35.3766,1.10000,0.90000,1.10000,0.90000
  9022,'TDSTRANH    ', 220.0000,1,  75,   1,   1,1.02145, -32.6746,1.10000,0.90000,1.10000,0.90000
  9032,'TUYHOA      ', 220.0000,1,   8,   1,   1,0.99485, -38.0311,1.10000,0.90000,1.10000,0.90000
  9042,'HASONGBA    ', 220.0000,1,   8,   1,   1,0.99575, -38.0400,1.10000,0.90000,1.10000,0.90000
 10102,'MAI_DONG    ', 220.0000,1,  25,   1,   1,1.00659, -12.2425,1.10000,0.90000,1.10000,0.90000
 10202,'CHEM        ', 220.0000,1,  25,   1,   1,1.00538, -11.5219,1.10000,0.90000,1.10000,0.90000
 10802,'SOC_SON     ', 220.0000,1,  25,   1,   1,1.01062, -10.2967,1.10000,0.90000,1.10000,0.90000
 13102,'HAGIANG     ', 220.0000,1,  25,   1,   1,1.02874,  -6.7609,1.10000,0.90000,1.10000,0.90000
 13112,'HAGIANG2    ', 220.0000,1,  25,   1,   1,1.02874,  -6.7609,1.10000,0.90000,1.10000,0.90000
 13202,'TUYENQUA    ', 220.0000,1,  25,   1,   1,1.00493, -18.5754,1.10000,0.90000,1.10000,0.90000
 13563,'ANLAC3T     ',  22.0000,4,   3,   1,   1,1.00000,   0.0000,1.10000,0.90000,1.10000,0.90000
 13604,'L_TRAY2T    ',   6.0000,4,   3,   1,   1,1.00000,   0.0000,1.10000,0.90000,1.10000,0.90000
 13605,'L_TRAY1T    ',   6.0000,4,   3,   1,   1,1.00000,   0.0000,1.10000,0.90000,1.10000,0.90000
 13654,'TN_1_1T     ',  35.0000,4,   3,   1,   1,1.00000,   0.0000,1.10000,0.90000,1.10000,0.90000
 13804,'CHIFON1T    ',   6.0000,4,   3,   1,   1,1.00000,   0.0000,1.10000,0.90000,1.10000,0.90000
 13805,'CHIFON2T    ',   6.0000,4,   3,   1,   1,1.00000,   0.0000,1.10000,0.90000,1.10000,0.90000
 13854,'POSCO1T     ',   6.0000,4,   3,   1,   1,1.00000,   0.0000,1.10000,0.90000,1.10000,0.90000
 14054,'LE_CHAN_    ',  22.0000,4,   3,   1,   1,1.00000,   0.0000,1.10000,0.90000,1.10000,0.90000
 14064,'LE_CHAN_    ',  22.0000,4,   3,   1,   1,1.00000,   0.0000,1.10000,0.90000,1.10000,0.90000
 14104,'CAT_BI_1    ',  22.0000,4,   3,   1,   1,1.00000,   0.0000,1.10000,0.90000,1.10000,0.90000
 14112,'YENBAI      ', 220.0000,4,  25,   1,   1,1.00000,   0.0000,1.10000,0.90000,1.10000,0.90000
 14210,'THACBAH1    ',  10.5000,4,  81,   1,   1,1.00000,   0.0000,1.10000,0.90000,1.10000,0.90000
 14220,'THACBAH2    ',  10.5000,4,  81,   1,   1,1.00000,   0.0000,1.10000,0.90000,1.10000,0.90000
 14230,'THACBAH3    ',  10.5000,4,  81,   1,   1,1.00000,   0.0000,1.10000,0.90000,1.10000,0.90000
 14254,'XIMAHP1T    ',   6.0000,4,   3,   1,   1,1.00000,   0.0000,1.10000,0.90000,1.10000,0.90000
 14264,'XIMAHP2T    ',   6.0000,4,   3,   1,   1,1.00000,   0.0000,1.10000,0.90000,1.10000,0.90000
 14310,'NOMURA      ',   6.6000,4,  85,   1,   1,1.00000,   0.0000,1.10000,0.90000,1.10000,0.90000
 14314,'NOMURA      ',  20.0000,4,  85,   1,   1,1.00000,   0.0000,1.10000,0.90000,1.10000,0.90000
 14315,'NOMURA      ',   6.6000,4,  85,   1,   1,1.00000,   0.0000,1.10000,0.90000,1.10000,0.90000
 14320,'NOMURA      ',   6.6000,4,  85,   1,   1,1.00000,   0.0000,1.10000,0.90000,1.10000,0.90000
 14330,'NOMURA      ',   6.6000,4,  85,   1,   1,1.00000,   0.0000,1.10000,0.90000,1.10000,0.90000
 15102,'TDNAHANG    ', 220.0000,1,  25,   1,   1,1.05549,   4.4157,1.10000,0.90000,1.10000,0.90000
 15106,'TDNAHANG    ',  22.0000,4,  25,   1,   1,1.00000,   0.0000,1.10000,0.90000,1.10000,0.90000
 15110,'NAHANGH1    ',  13.8000,2,  81,   1,   1,1.02000,   9.7857,1.10000,0.90000,1.10000,0.90000
 15120,'NAHANGH2    ',  13.8000,2,  81,   1,   1,1.02000,   9.7857,1.10000,0.90000,1.10000,0.90000
 15130,'NAHANGH3    ',  13.8000,2,  81,   1,   1,1.02000,   9.7857,1.10000,0.90000,1.10000,0.90000
 15202,'TUYENQUA    ', 220.0000,1,  25,   1,   1,1.04519,  -2.0249,1.10000,0.90000,1.10000,0.90000
 15810,'NBINH_S1    ',   6.3000,4,  81,   1,   1,1.00000,   0.0000,1.10000,0.90000,1.10000,0.90000
 15814,'NBINH_M1    ',  35.0000,4,   4,   1,   1,1.00000,   0.0000,1.10000,0.90000,1.10000,0.90000
 15819,'D_NBINH1    ',   1.0000,4,  81,   1,   1,1.00000,   0.0000,1.10000,0.90000,1.10000,0.90000
 15820,'NBINH_S2    ',   6.3000,4,  81,   1,   1,1.00000,   0.0000,1.10000,0.90000,1.10000,0.90000
 15830,'NBINH_S3    ',   6.3000,4,  81,   1,   1,1.00000,   0.0000,1.10000,0.90000,1.10000,0.90000
 15840,'NBINH_S4    ',   6.3000,4,  81,   1,   1,1.00000,   0.0000,1.10000,0.90000,1.10000,0.90000
 15844,'NBINH_M4    ',  35.0000,4,   4,   1,   1,1.00000,   0.0000,1.10000,0.90000,1.10000,0.90000
 15849,'D_NBINH4    ',   1.0000,4,  81,   1,   1,1.00000,   0.0000,1.10000,0.90000,1.10000,0.90000
 16020,'COCSAN      ',  10.5000,4,  81,   1,   1,1.00000,   0.0000,1.10000,0.90000,1.10000,0.90000
 16030,'NGOIPHAT    ',  10.5000,4,  81,   1,   1,1.00000,   0.0000,1.10000,0.90000,1.10000,0.90000
 16102,'LAOCAI      ', 220.0000,4,   1,   1,   1,1.00000,   0.0000,1.10000,0.90000,1.10000,0.90000
 16104,'LAOCAI      ',  35.0000,4,   1,   1,   1,1.00000,   0.0000,1.10000,0.90000,1.10000,0.90000
 16112,'TAN_KIEU    ', 220.0000,4,  91,   1,   1,1.00000,   0.0000,1.10000,0.90000,1.10000,0.90000
 16132,'TULCAI1     ', 220.0000,4,   1,   1,   1,1.00000,   0.0000,1.10000,0.90000,1.10000,0.90000
 16142,'TULCAI2     ', 220.0000,4,   1,   1,   1,1.00000,   0.0000,1.10000,0.90000,1.10000,0.90000
 16402,'TDNALE      ', 220.0000,4,   1,   1,   1,1.00000,   0.0000,1.10000,0.90000,1.10000,0.90000
 16410,'NALEH1      ',  10.5000,4,  81,   1,   1,1.00000,   0.0000,1.10000,0.90000,1.10000,0.90000
 17105,'SVC_VTRI    ',  23.0000,4,   1,   1,   1,1.00000,   0.0000,1.10000,0.90000,1.10000,0.90000
 17766,'RE_XMTL     ',   0.0000,4,   1,   1,   1,1.00000,   0.0000,1.10000,0.90000,1.10000,0.90000
 17767,'RE_XMTL     ',   0.0000,4,   1,   1,   1,1.00000,   0.0000,1.10000,0.90000,1.10000,0.90000
 18003,'HOANH_BO    ',  22.0000,4,  25,   1,   1,1.00000,   0.0000,1.10000,0.90000,1.10000,0.90000
 18202,'UONGBI      ', 220.0000,1,  25,   1,   1,1.03821,  -3.5778,1.10000,0.90000,1.10000,0.90000
 18203,'UBI-MR      ',  11.0000,4,  25,   1,   1,1.00000,   0.0000,1.10000,0.90000,1.10000,0.90000
 18210,'UONBI_S1    ',   6.3000,4,  81,   1,   1,1.00000,   0.0000,1.10000,0.90000,1.10000,0.90000
 18214,'UONG_BI     ',  35.0000,4,   1,   1,   1,1.00000,   0.0000,1.10000,0.90000,1.10000,0.90000
 18219,'D_UONGBI    ',   1.0000,4,  81,   1,   1,1.00000,   0.0000,1.10000,0.90000,1.10000,0.90000
 18220,'UONBI_S2    ',   6.3000,4,  81,   1,   1,1.00000,   0.0000,1.10000,0.90000,1.10000,0.90000
 18229,'D_UONGBI    ',   1.0000,4,  81,   1,   1,1.00000,   0.0000,1.10000,0.90000,1.10000,0.90000
 18230,'UONBI_S3    ',   6.3000,4,  81,   1,   1,1.00000,   0.0000,1.10000,0.90000,1.10000,0.90000
 18240,'UONBI_S4    ',   6.3000,4,  81,   1,   1,1.00000,   0.0000,1.10000,0.90000,1.10000,0.90000
 18250,'UONBI_S5    ',   6.3000,4,  81,   1,   1,1.00000,   0.0000,1.10000,0.90000,1.10000,0.90000
 18260,'UONBI_S6    ',   6.3000,4,  81,   1,   1,1.00000,   0.0000,1.10000,0.90000,1.10000,0.90000
 18270,'UBI_MR      ',  19.0000,2,  81,   1,   1,1.00000,   7.0502,1.10000,0.90000,1.10000,0.90000
 18404,'XM_TLONG    ',   6.0000,4,   1,   1, 105,1.00000,   0.0000,1.10000,0.90000,1.10000,0.90000
 18405,'XM_TLONG    ',   6.0000,4,   1,   1, 105,1.00000,   0.0000,1.10000,0.90000,1.10000,0.90000
 18504,'XMCAMPHA    ',   6.0000,4,   1,   1,   1,1.00000,   0.0000,1.10000,0.90000,1.10000,0.90000
 18505,'XMCAMPHA    ',   6.0000,4,   1,   1,   1,1.00000,   0.0000,1.10000,0.90000,1.10000,0.90000
 18506,'RE_XMCAM    ',   0.0000,4,   1,   1,   1,1.00000,   0.0000,1.10000,0.90000,1.10000,0.90000
 18507,'RE_XMCAM    ',   0.0000,4,   1,   1,   1,1.00000,   0.0000,1.10000,0.90000,1.10000,0.90000
 19102,'SONLA52     ', 220.0000,1,   6,   1,   1,1.05002,   5.4345,1.10000,0.90000,1.10000,0.90000
 19103,'SONLA       ',  35.0000,1,   6,   1,   1,1.02524,   5.3390,1.10000,0.90000,1.10000,0.90000
 19105,'SONLA       ', 500.0000,1,  90,   1,   1,1.03968,   6.1389,1.10000,0.90000,1.10000,0.90000
 19110,'SONLAH1     ',  15.8000,2,  11,   1,   1,1.00329,  11.4722,1.10000,0.90000,1.10000,0.90000
 19113,'SONLA       ',  35.0000,1,   6,   1,   1,1.05143,   5.3534,1.10000,0.90000,1.10000,0.90000
 19115,'TDSONLA     ', 500.0000,1,  90,   1,   1,1.04000,   6.2781,1.10000,0.90000,1.10000,0.90000
 19120,'SONLAH2     ',  15.8000,2,  11,   1,   1,1.00352,  11.5242,1.10000,0.90000,1.10000,0.90000
 19125,'SONLA_HB    ', 500.0000,1,  90,   1,   1,1.03968,   6.1389,1.10000,0.90000,1.10000,0.90000
 19130,'SONLAH3     ',  15.8000,2,  11,   1,   1,1.00352,  11.5242,1.10000,0.90000,1.10000,0.90000
 19135,'SONLA_NQ    ', 500.0000,1,  90,   1,   1,1.04000,   6.2781,1.10000,0.90000,1.10000,0.90000
 19140,'SONLAH4     ',  15.8000,2,  11,   1,   1,1.00352,  11.5242,1.10000,0.90000,1.10000,0.90000
 19150,'SONLAH5     ',  15.8000,2,  11,   1,   1,1.00352,  11.5242,1.10000,0.90000,1.10000,0.90000
 19160,'SONLAH6     ',  15.8000,2,  11,   1,   1,1.00352,  11.5242,1.10000,0.90000,1.10000,0.90000
 19354,'THIN_DAN    ',  22.0000,4,   1,   1,   1,1.00000,   0.0000,1.10000,0.90000,1.10000,0.90000
 20619,'D_PHALAI    ',   2.0000,1,  81,   1,   1,0.99837,  -4.2683,1.10000,0.90000,1.10000,0.90000
 20629,'D_PHALAI    ',   2.0000,1,  81,   1,   1,0.99838,  -4.2767,1.10000,0.90000,1.10000,0.90000
 20754,'HTHACH1T    ',   6.0000,4,   5,   1,   1,1.00000,   0.0000,1.10000,0.90000,1.10000,0.90000
 20764,'HTHACH2T    ',   6.0000,4,   5,   1,   1,1.00000,   0.0000,1.10000,0.90000,1.10000,0.90000
 20765,'HTHACH3T    ',   6.0000,4,   5,   1,   1,1.00000,   0.0000,1.10000,0.90000,1.10000,0.90000
 20804,'PL_TCONG    ',   6.0000,4,   5,   1,   1,1.00000,   0.0000,1.10000,0.90000,1.10000,0.90000
 20805,'PL_TCONG    ',   6.0000,4,   5,   1,   1,1.00000,   0.0000,1.10000,0.90000,1.10000,0.90000
 21054,'XM_PHSON    ',   6.0000,4,   5,   1,   1,1.00000,   0.0000,1.10000,0.90000,1.10000,0.90000
 21055,'XM_PHSON    ',   6.0000,4,   5,   1,   1,1.00000,   0.0000,1.10000,0.90000,1.10000,0.90000
 21212,'VIETTRC1    ', 220.0000,4,  25,   1,   1,1.00000,   0.0000,1.10000,0.90000,1.10000,0.90000
 21214,'VIETTRI1    ',  22.0000,4,  25,   1,   1,1.00000,   0.0000,1.10000,0.90000,1.10000,0.90000
 21222,'VIETTRC2    ', 220.0000,4,  25,   1,   1,1.00000,   0.0000,1.10000,0.90000,1.10000,0.90000
 21224,'VIETTRI2    ',  22.0000,4,  25,   1,   1,1.00000,   0.0000,1.10000,0.90000,1.10000,0.90000
 21360,'TDCUABAT    ',  10.5000,4,  81,   1,   1,1.00000,   0.0000,1.10000,0.90000,1.10000,0.90000
 22102,'THAINGUY    ', 220.0000,1,  70,   1,   1,1.02520,  -6.4523,1.10000,0.90000,1.10000,0.90000
 22103,'THAINGUY    ',  22.0000,4,   1,   1,   1,1.00000,   0.0000,1.10000,0.90000,1.10000,0.90000
 22112,'THAINGUY    ', 220.0000,1,  25,   1,   1,1.00049, -17.4862,1.10000,0.90000,1.10000,0.90000
 22113,'THAINGUY    ',  22.0000,4,  25,   1,   1,1.00000,   0.0000,1.10000,0.90000,1.10000,0.90000
 22114,'TUTHAING    ', 220.0000,1,  25,   1,   1,0.99640, -23.9318,1.10000,0.90000,1.10000,0.90000
 22310,'CAONGAS1    ',  10.5000,4,  85,   1,   1,1.00000,   0.0000,1.10000,0.90000,1.10000,0.90000
 22320,'CAONGAS2    ',  10.5000,4,  85,   1,   1,1.00000,   0.0000,1.10000,0.90000,1.10000,0.90000
 22502,'HA_DONG     ', 220.0000,1,  25,   1,   1,1.01613, -11.0587,1.10000,0.90000,1.10000,0.90000
 22503,'HA_DONG     ',  20.0000,4,  25, 110,   1,1.00000,   0.0000,1.10000,0.90000,1.10000,0.90000
 22513,'HA_DONG     ',  20.0000,4,  25, 110,   1,1.00000,   0.0000,1.10000,0.90000,1.10000,0.90000
 22523,'HA_DONG     ',  20.0000,4,  25, 110,   1,1.00000,   0.0000,1.10000,0.90000,1.10000,0.90000
 22702,'XUAN_MAI    ', 220.0000,1,  25,   1,   1,1.03705,  -9.3060,1.10000,0.90000,1.10000,0.90000
 22703,'XUAN_MAI    ',  20.0000,4,  25,   1,   1,1.00000,   0.0000,1.10000,0.90000,1.10000,0.90000
 23102,'HOABINH     ', 220.0000,1,  25,   1,   1,1.09411,  -4.3664,1.10000,0.90000,1.10000,0.90000
 23104,'HOABINH     ',  35.0000,4,  25,   1,   1,1.00000,   0.0000,1.10000,0.90000,1.10000,0.90000
 23105,'HOABINH     ', 500.0000,1,  90,   1,   1,1.02507,  -4.7462,1.10000,0.90000,1.10000,0.90000
 23110,'HOABINH1    ',  15.7500,2,  81,   1,   1,1.06000,   0.0001,1.10000,0.90000,1.10000,0.90000
 23112,'HOABINH     ', 220.0000,1,  25,   1,   1,1.09411,  -4.3664,1.10000,0.90000,1.10000,0.90000
 23113,'HB_AT1      ',  35.0000,1,  90,   1,   1,1.06871,  -4.3222,1.10000,0.90000,1.10000,0.90000
 23115,'HB-NQ       ', 500.0000,1,  90,   1,   1,1.02507,  -4.7462,1.10000,0.90000,1.10000,0.90000
 23120,'HOABINH2    ',  15.7500,2,  81,   1,   1,1.06000,  -0.3661,1.10000,0.90000,1.10000,0.90000
 23123,'HB_AT2      ',  35.0000,1,  90,   1,   1,1.06871,  -4.3222,1.10000,0.90000,1.10000,0.90000
 23130,'HOABINH3    ',  15.7500,2,  81,   1,   1,1.06000,  -0.3661,1.10000,0.90000,1.10000,0.90000
 23140,'HOABINH4    ',  15.7500,2,  81,   1,   1,1.06000,  -0.3661,1.10000,0.90000,1.10000,0.90000
 23150,'HOABINH5    ',  15.7500,2,  81,   1,   1,1.06000,  -0.3661,1.10000,0.90000,1.10000,0.90000
 23155,'HOABI_SL    ', 500.0000,1,  90,   1,   1,1.02507,  -4.7462,1.10000,0.90000,1.10000,0.90000
 23160,'HOABINH6    ',  15.7500,2,  81,   1,   1,1.06000,  -0.3661,1.10000,0.90000,1.10000,0.90000
 23170,'HOABINH7    ',  15.7500,2,  81,   1,   1,1.08000,  -0.4515,1.10000,0.90000,1.10000,0.90000
 23180,'HOABINH8    ',  15.8000,2,  81,   1,   1,1.08000,  -0.4515,1.10000,0.90000,1.10000,0.90000
 23850,'TIEN_HAI    ',  10.5000,4,  85,   1,   1,1.00000,   0.0000,1.10000,0.90000,1.10000,0.90000
 24102,'BACGIANG    ', 220.0000,1,  25,   1,   1,1.02165,  -8.8926,1.10000,0.90000,1.10000,0.90000
 24103,'BACGIANG    ',  22.0000,4,  25,   1,   1,1.00000,   0.0000,1.10000,0.90000,1.10000,0.90000
 24112,'BACGIANG    ', 220.0000,1,  25,   1,   1,1.02165,  -8.8926,1.10000,0.90000,1.10000,0.90000
 24113,'BACGIANG    ',  22.0000,4,  25,   1,   1,1.00000,   0.0000,1.10000,0.90000,1.10000,0.90000
 24152,'HIEP HOA    ', 220.0000,1,  25,   1,   1,1.01347,  -9.7040,1.10000,0.90000,1.10000,0.90000
 24153,'HH.T1       ',  35.0000,4,  90,   1,   1,1.00000,   0.0000,1.10000,0.90000,1.10000,0.90000
 24155,'HIEP HOA    ', 500.0000,4,  90,   1,   1,1.00000,   0.0000,1.10000,0.90000,1.10000,0.90000
 24403,'YEN_BAI     ',  22.0000,4,  25,   1,   1,1.00000,   0.0000,1.10000,0.90000,1.10000,0.90000
 24450,'VANCHAN     ',  10.5000,4,  81,   1,   1,1.00000,   0.0000,1.10000,0.90000,1.10000,0.90000
 25010,'NADUO_S1    ',   6.3000,4,  85,   1,   1,1.00000,   0.0000,1.10000,0.90000,1.10000,0.90000
 25020,'NADUO_S2    ',   6.3000,4,  85,   1,   1,1.00000,   0.0000,1.10000,0.90000,1.10000,0.90000
 26052,'DOLUONG     ', 220.0000,1,  25,   1,   1,1.02598, -17.2119,1.10000,0.90000,1.10000,0.90000
 26053,'DOLUONG     ',  10.0000,4,  25,   1,   1,1.00000,   0.0000,1.10000,0.90000,1.10000,0.90000
 26102,'NDMAOKHE    ', 220.0000,1,   6,   1,   1,1.03571,  -4.5052,1.10000,0.90000,1.10000,0.90000
 26110,'MAOKHES1    ',  10.5000,2,  11,   1,   1,1.09433,  -0.0195,1.10000,0.90000,1.10000,0.90000
 26120,'MAOKHES2    ',  10.5000,4,  11,   1,   1,1.00000,   0.0000,1.10000,0.90000,1.10000,0.90000
 27102,'TRANGBAC    ', 220.0000,1,  25,   1,   1,1.03662,  -4.2733,1.10000,0.90000,1.10000,0.90000
 27103,'TRANGBAC    ',  22.0000,4,  25,   1,   1,1.00000,   0.0000,1.10000,0.90000,1.10000,0.90000
 27202,'NDCAMPHA    ', 220.0000,1,   6,   1,   1,1.03991,  -0.6500,1.10000,0.90000,1.10000,0.90000
 27203,'CPHA T2     ',  22.0000,4,   1,   1,   1,1.00000,   0.0000,1.10000,0.90000,1.10000,0.90000
 27210,'CAMPHAS1    ',  19.0000,2,  11,   1,   1,1.02000,   5.6176,1.10000,0.90000,1.10000,0.90000
 27220,'CAMPHAS2    ',  19.0000,4,  11,   1,   1,1.00000,   0.0000,1.10000,0.90000,1.10000,0.90000
 27302,'QUANGNIN    ', 220.0000,1,   6,   1,   1,1.03931,  -1.6237,1.10000,0.90000,1.10000,0.90000
 27303,'QUANGNIN    ',  35.0000,1,   6,   1,   1,1.06100,  -1.2745,1.10000,0.90000,1.10000,0.90000
 27305,'QUANGNIN    ', 500.0000,1,  90,   1,   1,1.04680,  -4.4381,1.10000,0.90000,1.10000,0.90000
 27310,'NDQN1S1     ',  19.0000,2,  11,   1,   1,1.02000,   4.4409,1.10000,0.90000,1.10000,0.90000
 27320,'NDQN1S2     ',  19.0000,2,  11,   1,   1,1.02000,   1.9480,1.10000,0.90000,1.10000,0.90000
 27330,'NDQN2S1     ',  19.0000,2,  11,   1,   1,1.02000,   1.9480,1.10000,0.90000,1.10000,0.90000
 27402,'HOANHBO     ', 220.0000,1,  25,   1,   1,1.03706,  -2.5608,1.10000,0.90000,1.10000,0.90000
 27510,'NAMCHIE2    ',  10.5000,4,  81,   1,   1,1.00000,   0.0000,1.10000,0.90000,1.10000,0.90000
 27606,'RE_PHUYE    ',   0.0000,4,   1,   1,   1,1.00000,   0.0000,1.10000,0.90000,1.10000,0.90000
 28150,'HUONGSON    ',  10.5000,4,  81,   1,   1,1.00000,   0.0000,1.10000,0.90000,1.10000,0.90000
 29102,'DINHVU      ', 220.0000,1,   6,   1,   1,1.03633,  -5.4589,1.10000,0.90000,1.10000,0.90000
 29103,'DINHVU      ',  20.0000,4,   6,   1,   1,1.00000,   0.0000,1.10000,0.90000,1.10000,0.90000
 29162,'BAOTHANG    ', 220.0000,4,   1,   1,   1,1.00000,   0.0000,1.10000,0.90000,1.10000,0.90000
 29163,'BAOTHANG    ',  35.0000,4,   1,   1,   1,1.00000,   0.0000,1.10000,0.90000,1.10000,0.90000
 29202,'NDHAIPHO    ', 220.0000,1,   6,   1,   1,1.04056,  -4.8139,1.10000,0.90000,1.10000,0.90000
 29203,'NDHAIPHO    ',  22.0000,4,  21,   1,   1,1.00000,   0.0000,1.10000,0.90000,1.10000,0.90000
 29210,'HAIPH1S1    ',  19.0000,2,  11,   1,   1,1.02000,   1.7705,1.10000,0.90000,1.10000,0.90000
 29220,'HAIPH2S1    ',  19.0000,2,  11,   1,   1,1.02000,   1.7705,1.10000,0.90000,1.10000,0.90000
 29230,'HAIPH2S1    ',  19.0000,4,  11,   1,   1,1.00000,   0.0000,1.10000,0.90000,1.10000,0.90000
 29240,'HAIPH2S2    ',  19.0000,4,  11,   1,   1,1.00000,   0.0000,1.10000,0.90000,1.10000,0.90000
 29302,'VATCACH     ', 220.0000,1,  25,   1,   1,1.03481,  -5.2141,1.10000,0.90000,1.10000,0.90000
 29303,'VATCACH     ',  22.0000,4,  25,   1,   1,1.00000,   0.0000,1.10000,0.90000,1.10000,0.90000
 29502,'DONGHOA     ', 220.0000,1,  25,   1,   1,1.02977,  -6.1252,1.10000,0.90000,1.10000,0.90000
 29503,'DONGHOA     ',  10.0000,4,  25,   1,   1,1.00000,   0.0000,1.10000,0.90000,1.10000,0.90000
 30110,'PHALAIS1    ',  10.5000,2,  81,   1,   1,1.02000,   0.1842,1.10000,0.90000,1.10000,0.90000
 30112,'PHALAI1     ', 220.0000,1,  25,   1,   1,1.03407,  -6.7226,1.10000,0.90000,1.10000,0.90000
 30120,'PHALAIS2    ',  10.5000,2,  81,   1,   1,1.02000,   0.1608,1.10000,0.90000,1.10000,0.90000
 30122,'PHALAI2     ', 220.0000,1,  25,   1,   1,1.03407,  -6.7226,1.10000,0.90000,1.10000,0.90000
 30130,'PHALAIS3    ',  10.0000,4,  81,   1,   1,1.00000,   0.0000,1.10000,0.90000,1.10000,0.90000
 30140,'PHALAIS4    ',  10.5000,2,  81,   1,   1,1.02000,  -1.5834,1.10000,0.90000,1.10000,0.90000
...
0 / END OF BUS DATA, BEGIN LOAD DATA
  1062,'1 ',1,   6,   1,    71.825,    16.174,     6.501,     1.610,    51.786,   -14.431,   1,1,0
  1742,'1 ',1,   6,   1,    52.459,     9.132,     4.566,     0.874,    34.979,    -7.535,   1,1,0
  3510,'1 ',1,  11,   1,     5.203,     1.463,     0.473,     0.146,     3.784,    -1.317,   1,1,0
  3520,'1 ',1,  11,   1,     5.203,     1.463,     0.473,     0.146,     3.784,    -1.317,   1,1,0
  4822,'1 ',1,   6,   1,    78.804,    23.923,     7.130,     2.381,    56.771,   -21.327,   1,1,0
  9002,'1 ',1,  75,   1,    32.159,     7.475,     2.869,     0.734,    22.525,    -6.480,   1,1,0
  9012,'1 ',1,   8,   1,    41.052,    14.622,     3.773,     1.478,    30.520,   -13.452,   1,1,0
  9032,'1 ',1,   8,   1,    18.299,    -2.997,     1.672,    -0.301,    13.446,     2.725,   1,1,0
 10102,'1 ',1,  25,   1,   239.118,    28.698,    21.596,     2.851,   171.635,   -25.491,   1,1,0
 10202,'1 ',1,  25,   1,   181.973,    73.799,    16.454,     7.340,   130.930,   -65.710,   1,1,0
 10802,'1 ',1,  25,   1,   117.788,    24.378,    10.595,     2.412,    83.873,   -21.482,   1,1,0
 13563,'1 ',1,   3, 160,    15.002,     4.483,     1.364,     0.448,    10.911,    -4.034,   1,1,0
 13604,'1 ',1,   3, 160,     3.428,     1.024,     0.312,     0.102,     2.493,    -0.922,   1,1,0
 13605,'1 ',1,   3, 160,     6.859,     2.049,     0.623,     0.205,     4.988,    -1.845,   1,1,0
 13654,'1 ',1,   3, 160,     5.146,     1.538,     0.468,     0.154,     3.742,    -1.384,   1,1,0
 13804,'1 ',1,   3, 160,    19.797,     5.916,     1.800,     0.592,    14.398,    -5.324,   1,1,0
 13805,'1 ',1,   3, 160,     0.000,     0.000,     0.000,     0.000,     0.000,     0.000,   1,1,0
 13854,'1 ',1,   3, 160,     5.573,     1.665,     0.507,     0.166,     4.053,    -1.498,   1,1,0
 14054,'1 ',1,   3, 160,    16.898,     5.049,     1.536,     0.505,    12.290,    -4.545,   1,1,0
 14064,'1 ',1,   3, 160,    11.266,     3.366,     1.024,     0.337,     8.193,    -3.030,   1,1,0
 14104,'1 ',1,   3, 160,    11.266,     3.366,     1.024,     0.337,     8.193,    -3.030,   1,1,0
 14112,'1 ',1,  25,   1,    34.040,     3.185,     3.094,     0.318,    24.756,    -2.866,   1,1,0
 14254,'1 ',1,   3, 160,    12.810,     3.828,     1.165,     0.383,     9.316,    -3.445,   1,1,0
 14264,'1 ',1,   3, 160,     0.000,     0.000,     0.000,     0.000,     0.000,     0.000,   1,1,0
 15810,'1 ',1,  81, 810,     1.561,     0.467,     0.142,     0.047,     1.135,    -0.420,   1,1,0
 15814,'1 ',1,   4, 170,     9.747,     2.912,     0.886,     0.291,     7.089,    -2.621,   1,1,0
 15820,'1 ',1,  81, 810,     1.564,     0.468,     0.142,     0.047,     1.137,    -0.421,   1,1,0
 15830,'1 ',1,  81, 810,     1.541,     0.460,     0.140,     0.046,     1.120,    -0.414,   1,1,0
 15840,'1 ',1,  81, 810,     1.539,     0.460,     0.140,     0.046,     1.120,    -0.414,   1,1,0
 15844,'1 ',1,   4, 170,    16.898,     5.049,     1.536,     0.505,    12.290,    -4.545,   1,1,0
 16102,'1 ',1,   1,   1,    28.089,     5.305,     2.553,     0.530,    20.428,    -4.774,   1,1,0
 16410,'1 ',1,  81,   1,     0.574,     0.171,     0.052,     0.017,     0.418,    -0.154,   1,1,0
 18202,'1 ',1,  25,   1,    47.201,    -5.401,     4.133,    -0.520,    31.848,     4.510,   1,1,0
 18210,'1 ',1,  81, 810,     0.534,     0.160,     0.049,     0.016,     0.388,    -0.144,   1,1,0
 18214,'1 ',1,   1, 105,    19.491,     5.824,     1.772,     0.582,    14.176,    -5.242,   1,1,0
 18220,'1 ',1,  81, 810,     0.538,     0.161,     0.049,     0.016,     0.392,    -0.144,   1,1,0
 18250,'1 ',1,  81, 810,     0.534,     0.160,     0.049,     0.016,     0.388,    -0.144,   1,1,0
 18260,'1 ',1,  81, 810,     0.534,     0.160,     0.049,     0.016,     0.388,    -0.144,   1,1,0
 19110,'1 ',1,  11,   1,     1.840,     0.517,     0.167,     0.052,     1.329,    -0.463,   1,1,0
 19354,'1 ',1,   1, 106,    11.716,     3.500,     1.065,     0.350,     8.520,    -3.150,   1,1,0
 20754,'1 ',1,   5, 180,    10.657,     3.184,     0.969,     0.318,     7.750,    -2.866,   1,1,0
 20764,'1 ',1,   5, 180,     9.589,     2.865,     0.872,     0.287,     6.974,    -2.579,   1,1,0
 20765,'1 ',1,   5, 180,    12.785,     3.820,     1.162,     0.382,     9.298,    -3.438,   1,1,0
 20804,'1 ',1,   5, 180,     2.134,     0.637,     0.194,     0.064,     1.552,    -0.574,   1,1,0
 20805,'1 ',1,   5, 180,     2.240,     0.669,     0.204,     0.067,     1.629,    -0.603,   1,1,0
 21054,'1 ',1,   5, 180,    23.548,     7.036,     2.141,     0.704,    17.126,    -6.333,   1,1,0
 21055,'1 ',1,   5, 180,     0.000,     0.000,     0.000,     0.000,     0.000,     0.000,   1,1,0
 21222,'1 ',1,  25,   1,   131.318,    -6.450,    11.938,    -0.645,    95.504,     5.805,   1,1,0
 22112,'1 ',1,  25,   1,   159.753,    14.476,    14.516,     1.447,   116.069,   -13.015,   1,1,0
 22502,'1 ',1,  25,   1,   274.230,    69.199,    24.534,     6.810,   193.158,   -60.317,   1,1,0
 22702,'1 ',1,  25,   1,    83.160,    22.572,     7.290,     2.177,    56.236,   -18.889,   1,1,0
 23102,'1 ',1,  25,   1,    29.293,    17.181,     2.434,     1.570,    17.797,   -12.917,   1,1,0
 23105,'1 ',1,  90,   1,    41.212,    28.815,     3.655,     2.811,    28.524,   -24.681,   1,1,0
 23850,'1 ',0,  85, 810,     0.000,     0.000,     0.000,     0.000,     0.000,     0.000,   1,1,0
 24102,'1 ',1,  25,   1,    33.468,     4.591,     2.978,     0.449,    23.319,    -3.959,   1,1,0
 24112,'1 ',1,  25,   1,    65.417,    21.801,     5.821,     2.134,    45.581,   -18.798,   1,1,0
 24450,'1 ',1,   1, 112,     0.338,     0.101,     0.031,     0.010,     0.246,    -0.091,   1,1,0
 25010,'1 ',1,  85, 810,     0.837,     0.250,     0.076,     0.025,     0.608,    -0.225,   1,1,0
 25020,'1 ',1,  85, 810,     0.837,     0.250,     0.076,     0.025,     0.608,    -0.225,   1,1,0
 26052,'1 ',1,  25,   1,    48.620,     1.369,     4.308,     0.133,    33.592,    -1.170,   1,1,0
 26110,'1 ',1,  11,   1,    10.405,     2.925,     0.864,     0.267,     6.319,    -2.199,   1,1,0
 26120,'1 ',1,  11,   1,    10.672,     3.189,     0.970,     0.319,     7.762,    -2.870,   1,1,0
 27102,'1 ',1,  25,   1,    45.633,     3.952,     4.002,     0.381,    30.884,    -3.310,   1,1,0
 27202,'1 ',1,   6,   1,    52.057,     5.876,     4.551,     0.565,    35.009,    -4.890,   1,1,0
 27210,'1 ',1,  11,   1,    14.189,     3.990,     1.265,     0.391,     9.919,    -3.451,   1,1,0
 27220,'1 ',1,  11,   1,    14.049,     4.198,     1.277,     0.420,    10.218,    -3.778,   1,1,0
 27310,'1 ',1,  11,   1,    14.189,     3.990,     1.265,     0.391,     9.919,    -3.451,   1,1,0
 27320,'1 ',1,  11,   1,    14.189,     3.990,     1.265,     0.391,     9.919,    -3.451,   1,1,0
 27330,'1 ',1,  11,   1,    14.189,     3.990,     1.265,     0.391,     9.919,    -3.451,   1,1,0
 27402,'1 ',1,  25,   1,   108.026,    27.649,     9.470,     2.666,    73.049,   -23.137,   1,1,0
 27510,'1 ',1,  81, 117,     0.282,     0.084,     0.026,     0.008,     0.205,    -0.076,   1,1,0
 28150,'1 ',1,   1, 118,     0.338,     0.101,     0.031,     0.010,     0.246,    -0.091,   1,1,0
 29102,'1 ',1,   6,   1,    65.136,     8.633,     5.714,     0.833,    44.108,    -7.234,   1,1,0
 29202,'1 ',1,   6,   1,    53.757,    20.591,     4.697,     1.979,    36.108,   -17.116,   1,1,0
 29210,'1 ',1,  11,   1,    14.189,     3.990,     1.265,     0.391,     9.919,    -3.451,   1,1,0
 29220,'1 ',1,  11,   1,    14.189,     3.990,     1.265,     0.391,     9.919,    -3.451,   1,1,0
 29230,'1 ',1,  11,   1,    12.944,     3.867,     1.177,     0.387,     9.414,    -3.481,   1,1,0
 29240,'1 ',1,  11,   1,    12.944,     3.867,     1.177,     0.387,     9.414,    -3.481,   1,1,0
 29302,'1 ',1,  25,   1,    61.077,    34.221,     5.366,     3.307,    41.482,   -28.761,   1,1,0
 29303,'1 ',1,  25,  25,     0.000,     0.000,     0.000,     0.000,     0.000,     0.000,   1,1,0
 29502,'1 ',1,  25,   1,   113.036,    30.137,     9.979,     2.927,    77.524,   -25.578,   1,1,0
 29503,'1 ',1,   3, 160,     0.000,     0.000,     0.000,     0.000,     0.000,     0.000,   1,1,0
 30110,'1 ',1,  81, 810,     3.419,     0.961,     0.305,     0.094,     2.390,    -0.831,   1,1,0
 30120,'1 ',1,  81, 810,     3.593,     1.010,     0.320,     0.099,     2.511,    -0.874,   1,1,0
 30130,'1 ',1,  81, 810,     2.259,     0.674,     0.205,     0.067,     1.643,    -0.607,   1,1,0
 30140,'1 ',1,  81, 810,     2.304,     0.648,     0.205,     0.064,     1.611,    -0.561,   1,1,0
 30150,'1 ',1,  81, 810,     3.552,     0.999,     0.317,     0.098,     2.483,    -0.864,   1,1,0
 30160,'1 ',1,  81, 810,     3.447,     0.969,     0.307,     0.095,     2.409,    -0.838,   1,1,0
 31112,'1 ',1,  25,   1,   127.440,    26.708,    11.716,     2.701,    94.789,   -24.583,   1,1,0
 32154,'1 ',1,   1, 127,     1.479,     0.442,     0.134,     0.044,     1.076,    -0.398,   1,1,0
 32452,'1 ',1,  25,   1,   109.494,    40.788,     9.807,     4.018,    77.290,   -35.629,   1,1,0
 32802,'1 ',1,  25,   1,   102.102,    18.761,     9.159,     1.851,    72.305,   -16.442,   1,1,0
 33102,'1 ',1,   6,   1,    42.922,     4.822,     3.887,     0.480,    30.983,    -4.307,   1,1,0
 34020,'1 ',1,  81, 129,     0.338,     0.101,     0.031,     0.010,     0.246,    -0.091,   1,1,0
 34102,'1 ',1,  25,   1,   124.575,    26.171,    11.347,     2.622,    90.960,   -23.647,   1,1,0
 35102,'1 ',1,  25,   1,   117.057,    11.809,    10.766,     1.195,    87.131,   -10.877,   1,1,0
 36302,'1 ',1,  25,   1,   163.823,     8.750,    15.041,     0.884,   121.521,    -8.033,   1,1,0
 42722,'1 ',1,  32,   1,   118.811,    14.528,    11.002,     1.480,    89.658,   -13.567,   1,1,0
 42852,'1 ',1,  55,   1,   212.289,    78.998,    19.744,     8.082,   161.601,   -74.418,   1,1,0
 43204,'1 ',1,  85, 860,     2.769,     0.827,     0.252,     0.083,     2.014,    -0.745,   1,1,0
 43210,'1 ',1,  85, 860,     3.343,     0.999,     0.304,     0.100,     2.431,    -0.899,   1,1,0
 43220,'1 ',1,  85, 860,     3.126,     0.934,     0.284,     0.093,     2.273,    -0.841,   1,1,0
 43230,'1 ',1,  85, 860,     4.463,     1.334,     0.406,     0.133,     3.246,    -1.200,   1,1,0
 43278,'1 ',1,  85, 860,     5.538,     1.655,     0.503,     0.165,     4.028,    -1.489,   1,1,0
 43288,'1 ',1,  85, 860,     5.538,     1.655,     0.503,     0.165,     4.028,    -1.489,   1,1,0
 43298,'1 ',1,  85, 860,     5.538,     1.655,     0.503,     0.165,     4.028,    -1.489,   1,1,0
 43302,'1 ',1,  55,   1,   369.727,   118.666,    35.728,    12.614,   303.823,  -120.674,   1,1,0
 43408,'1 ',1,  32, 400,    18.388,     5.495,     1.672,     0.549,    13.373,    -4.945,   1,1,0
 43902,'1 ',1,  55,   1,   388.641,   119.870,    37.317,    12.661,   315.313,  -120.351,   1,1,0
 43910,'1 ',1,  81, 860,     1.823,     0.545,     0.166,     0.054,     1.326,    -0.490,   1,1,0
 43920,'1 ',1,  81, 860,     2.139,     0.639,     0.194,     0.064,     1.556,    -0.575,   1,1,0
 43930,'1 ',1,  81, 860,     2.107,     0.629,     0.191,     0.063,     1.532,    -0.567,   1,1,0
 44102,'1 ',1,  25,   1,   119.218,    14.396,    11.101,     1.475,    90.961,   -13.593,   1,1,0
 44202,'1 ',1,  25,   1,    75.273,    25.762,     6.971,     2.624,    56.807,   -24.060,   1,1,0
 44402,'1 ',1,  55,   1,   184.184,    67.435,    17.426,     7.018,   145.092,   -65.738,   1,1,0
 44658,'1 ',1,  85, 860,     0.000,     0.000,     0.000,     0.000,     0.000,     0.000,   1,1,0
 44668,'1 ',1,  85, 860,     5.817,     1.738,     0.529,     0.174,     4.230,    -1.564,   1,1,0
 44782,'1 ',1,   9,   1,   110.330,    45.944,    10.759,     4.929,    92.335,   -47.582,   1,1,0
 45102,'1 ',1,  25,   1,    64.999,    29.733,     5.848,     2.943,    46.307,   -26.213,   1,1,0
 45703,'1 ',1,  85, 860,     0.000,     0.000,     0.000,     0.000,     0.000,     0.000,   1,1,0
 46059,'1 ',1,  85, 860,     4.318,     1.291,     0.393,     0.129,     3.140,    -1.161,   1,1,0
 46069,'1 ',1,  85, 860,     4.318,     1.291,     0.393,     0.129,     3.140,    -1.161,   1,1,0
 46222,'1 ',1,  25,   1,    28.100,     8.059,     2.485,     0.784,    19.347,    -6.866,   1,1,0
 49202,'1 ',1,  55,   1,   264.913,    90.209,    25.443,     9.530,   215.040,   -90.617,   1,1,0
 49314,'1 ',1,  85, 860,     0.000,     0.000,     0.000,     0.000,     0.000,     0.000,   1,1,0
 49602,'1 ',1,  55,   1,    99.088,    42.317,     9.289,     4.364,    76.623,   -40.495,   1,1,0
 49710,'1 ',1,  85, 860,     0.994,     0.297,     0.090,     0.030,     0.723,    -0.267,   1,1,0
 49802,'1 ',1,  55,   1,    58.850,    35.444,     5.630,     3.730,    47.402,   -35.329,   1,1,0
 49805,'1 ',1,  33, 450,     7.069,     2.112,     0.643,     0.211,     5.141,    -1.901,   1,1,0
 49810,'1 ',1,  81, 860,     1.657,     0.465,     0.156,     0.048,     1.299,    -0.451,   1,1,0
 49820,'1 ',1,  81, 860,     1.657,     0.465,     0.156,     0.048,     1.299,    -0.451,   1,1,0
 49830,'1 ',1,  81, 860,     1.662,     0.467,     0.157,     0.048,     1.302,    -0.453,   1,1,0
 49840,'1 ',1,  81, 860,     1.662,     0.496,     0.151,     0.050,     1.208,    -0.447,   1,1,0
 50102,'1 ',1,  75,   1,    86.581,     7.254,     8.081,     0.745,    66.378,    -6.883,   1,1,0
 50304,'1 ',1,  85, 860,    45.982,    13.739,     4.180,     1.374,    33.441,   -12.366,   1,1,0
 50350,'1 ',1,  81,  55,     6.897,     1.939,     0.615,     0.190,     4.821,    -1.677,   1,1,0
 50360,'1 ',1,  81,  55,     6.897,     1.939,     0.615,     0.190,     4.821,    -1.677,   1,1,0
 50370,'1 ',1,  81,  55,     6.897,     1.939,     0.615,     0.190,     4.821,    -1.677,   1,1,0
 51702,'1 ',1,  55,   1,    32.252,     1.590,     2.898,     0.157,    22.917,    -1.398,   1,1,0
 51715,'1 ',1,  31, 350,     0.000,     0.000,     0.000,     0.000,     0.000,     0.000,   1,1,0
 52555,'1 ',1,  85, 860,     0.127,     0.038,     0.012,     0.004,     0.092,    -0.034,   1,1,0
 52564,'1 ',1,  85, 860,     4.828,     1.442,     0.439,     0.144,     3.511,    -1.298,   1,1,0
 53102,'1 ',1,  75,   1,    95.980,    37.166,     8.502,     3.621,    66.268,   -31.755,   1,1,0
 53105,'1 ',1,  90,   1,   133.689,    36.380,    12.275,     3.674,    99.179,   -33.399,   1,1,0
 53359,'1 ',1,  85, 860,     0.553,     0.166,     0.050,     0.017,     0.402,    -0.149,   1,1,0
 53462,'1 ',1,  55,   1,    80.988,    32.207,     8.112,     3.549,    71.507,   -35.190,   1,1,0
 53472,'1 ',1,   9,   1,    49.308,    23.132,     5.005,     2.583,    44.700,   -25.951,   1,1,0
 54102,'1 ',1,  55,   1,   243.716,    72.901,    23.624,     7.773,   201.511,   -74.592,   1,1,0
 54752,'1 ',1,  55,   1,    80.426,    24.732,     7.856,     2.657,    67.522,   -25.695,   1,1,0
 54804,'1 ',1,  85, 860,     0.000,     0.000,     0.000,     0.000,     0.000,     0.000,   1,1,0
 54814,'1 ',1,  85, 860,     6.779,     2.026,     0.616,     0.203,     4.930,    -1.823,   1,1,0
 55102,'1 ',1,  75,   1,    42.988,    10.656,     3.858,     1.052,    30.466,    -9.345,   1,1,0
 55202,'1 ',1,  75,   1,    24.948,    -3.246,     2.239,    -0.320,    17.688,     2.848,   1,1,0
 55210,'1 ',1,  85,  75,     3.449,     1.031,     0.313,     0.103,     2.508,    -0.927,   1,1,0
 55222,'1 ',1,  31,   1,    42.691,    -6.511,     4.110,    -0.690,    34.828,     6.573,   1,1,0
 55259,'1 ',1,  85, 860,     1.720,     0.514,     0.156,     0.051,     1.251,    -0.463,   1,1,0
 55852,'1 ',1,  55,   1,    81.934,    33.840,     7.471,     3.394,    59.949,   -30.640,   1,1,0
 55853,'1 ',1,  31, 354,    27.500,     7.500,     2.500,     0.750,    20.000,    -6.750,   1,1,0
 55902,'1 ',1,  55,   1,    63.646,    27.173,     5.750,     2.700,    45.706,   -24.148,   1,1,0
 55910,'1 ',1,  81, 860,     0.171,     0.048,     0.015,     0.005,     0.122,    -0.043,   1,1,0
 55920,'1 ',1,  81, 860,     0.166,     0.047,     0.015,     0.005,     0.118,    -0.041,   1,1,0
 55930,'1 ',0,  81, 860,     0.172,     0.052,     0.015,     0.005,     0.122,    -0.045,   1,1,0
 55940,'1 ',1,  81, 860,     0.178,     0.051,     0.016,     0.005,     0.127,    -0.045,   1,1,0
 55960,'1 ',1,  81, 860,     0.167,     0.049,     0.015,     0.005,     0.121,    -0.045,   1,1,0
 56102,'1 ',1,  76,   1,    98.829,    56.872,     9.204,     5.826,    75.436,   -53.720,   1,1,0
 56205,'1 ',1,  31, 354,     1.655,     0.465,     0.149,     0.046,     1.185,    -0.413,   1,1,0
 56210,'1 ',1,  81,  76,     0.862,     0.257,     0.078,     0.026,     0.627,    -0.232,   1,1,0
 56310,'1 ',1,  81,  76,     0.862,     0.243,     0.079,     0.025,     0.644,    -0.224,   1,1,0
 56420,'1 ',0,  81,  55,     0.825,     0.246,     0.075,     0.025,     0.600,    -0.222,   1,1,0
 56510,'1 ',1,  81,  76,     1.724,     0.485,     0.160,     0.049,     1.303,    -0.454,   1,1,0
 56902,'1 ',1,  55,   1,    43.159,    17.586,     3.825,     1.715,    29.838,   -15.045,   1,1,0
 57122,'1 ',1,  31,   1,    16.456,     0.804,     1.459,     0.078,    11.377,    -0.688,   1,1,0
 57303,'1 ',1,  31, 355,     0.000,     0.000,     0.000,     0.000,     0.000,     0.000,   1,1,0
 57322,'1 ',1,   9,   1,    86.422,    31.629,     8.171,     3.290,    67.990,   -30.793,   1,1,0
 57954,'1 ',1,  31, 356,     9.848,     2.943,     0.895,     0.294,     7.162,    -2.648,   1,1,0
 58102,'1 ',1,  55,   1,    33.413,     5.655,     3.126,     0.582,    25.733,    -5.390,   1,1,0
 58158,'1 ',1,  85, 860,     3.403,     1.017,     0.309,     0.102,     2.475,    -0.915,   1,1,0
 58209,'1 ',1,  85, 860,     5.156,     1.541,     0.469,     0.154,     3.750,    -1.386,   1,1,0
 58219,'1 ',1,  85, 860,     0.000,     0.000,     0.000,     0.000,     0.000,     0.000,   1,1,0
 58308,'1 ',1,  85, 860,     3.281,     0.980,     0.298,     0.098,     2.386,    -0.882,   1,1,0
 59034,'1 ',1,  31, 358,     8.665,     2.589,     0.788,     0.259,     6.302,    -2.330,   1,1,0
 59052,'1 ',1,  55,   1,    44.171,    19.787,     4.167,     2.054,    34.600,   -19.181,   1,1,0
 59072,'1 ',1,  31,   1,    44.704,     8.092,     4.229,     0.842,    35.203,    -7.885,   1,1,0
 60202,'1 ',1,  76,   1,   268.439,    51.025,    24.005,     5.019,   188.897,   -44.433,   1,1,0
 60710,'1 ',1,  81, 860,     2.168,     0.647,     0.197,     0.065,     1.576,    -0.583,   1,1,0
 60959,'1 ',1,  85, 860,     0.792,     0.236,     0.072,     0.024,     0.576,    -0.213,   1,1,0
 60969,'1 ',1,  85, 860,     0.000,     0.000,     0.000,     0.000,     0.000,     0.000,   1,1,0
 61052,'1 ',1,  55,   1,    45.837,     6.977,     4.100,     0.687,    32.280,    -6.080,   1,1,0
 62902,'1 ',1,  55,   1,    29.838,    11.729,     2.613,     1.130,    20.137,    -9.795,   1,1,0
 64372,'1 ',1,  31,   1,    28.479,     9.061,     2.545,     0.891,    20.014,    -7.880,   1,1,0
 64392,'1 ',1,  31,   1,    45.788,    -0.127,     4.092,    -0.012,    32.181,     0.110,   1,1,0
 65502,'1 ',1,  55,   1,    78.650,    30.918,     7.487,     3.238,    62.724,   -30.513,   1,1,0
 65522,'1 ',1,   9,   1,    40.150,    11.389,     3.857,     1.203,    32.602,   -11.445,   1,1,0
 65554,'1 ',1,  31, 365,    11.496,     3.435,     1.045,     0.343,     8.360,    -3.092,   1,1,0
 66752,'1 ',1,  55,   1,    30.014,     2.249,     2.728,     0.225,    21.816,    -2.023,   1,1,0
 67452,'1 ',1,  55,   1,    15.427,     2.630,     1.339,     0.251,    10.229,    -2.158,   1,1,0
 73110,'1 ',1,  81, 860,     0.497,     0.148,     0.045,     0.015,     0.361,    -0.134,   1,1,0
 73120,'1 ',1,  81, 860,     0.580,     0.174,     0.053,     0.017,     0.422,    -0.156,   1,1,0
 77102,'1 ',1,  55,   1,    86.713,    25.381,     8.379,     2.698,    71.249,   -25.808,   1,1,0
 79112,'1 ',1,  55,   1,   329.258,   128.042,    31.170,    13.334,   259.670,  -124.964,   1,1,0
...
0 / END OF LOAD DATA, BEGIN FIXED SHUNT DATA
 17105,'1 ',1,     0.000,    25.320
 51702,'1 ',1,     0.141,    -1.200
 56304,'1 ',1,     0.031,    -0.200
 86402,'1 ',1,     0.040,    -0.130
0 / END OF FIXED SHUNT DATA, BEGIN GENERATOR DATA
  3510,'1 ',   110.000,    35.039,    68.000,   -60.000,1.00000,     0,   141.000, 0.00000E+0, 2.20000E-1, 0.00000E+0, 0.00000E+0,1.00000,1,  100.0,   110.000,    40.000,   1,1.0000
  3520,'1 ',   110.000,    35.039,    68.000,   -60.000,1.00000,     0,   141.000, 0.00000E+0, 2.20000E-1, 0.00000E+0, 0.00000E+0,1.00000,1,  100.0,   110.000,    40.000,   1,1.0000
  7152,'1 ',   300.000,    14.194,   100.000,  -100.000,1.04500,     0,   400.000, 0.00000E+0, 1.70000E-1, 0.00000E+0, 0.00000E+0,1.00000,1,  100.0,   300.000,     0.000,   1,1.0000
 14210,'1 ',     0.000,     0.000,    40.000,   -17.000,1.03000,     0,    42.500, 0.00000E+0, 1.60000E-1, 0.00000E+0, 0.00000E+0,1.00000,1,  100.0,    40.000,     0.000,   1,1.0000
 14220,'1 ',     0.000,     0.000,    40.000,   -17.000,1.03000,     0,    42.500, 0.00000E+0, 1.60000E-1, 0.00000E+0, 0.00000E+0,1.00000,1,  100.0,    40.000,     0.000,   1,1.0000
 14230,'1 ',     0.000,     0.000,    40.000,   -17.000,1.03000,     0,    42.500, 0.00000E+0, 1.60000E-1, 0.00000E+0, 0.00000E+0,1.00000,1,  100.0,    40.000,     0.000,   1,1.0000
 14310,'1 ',     0.000,     0.000,     4.650,     0.000,1.02000,     0,     7.750, 0.00000E+0, 2.80000E-1, 0.00000E+0, 0.00000E+0,1.00000,0,  100.0,     6.200,     2.500,   1,1.0000
 14310,'2 ',     0.000,     0.000,     4.650,     0.000,1.02000,     0,     7.750, 0.00000E+0, 2.80000E-1, 0.00000E+0, 0.00000E+0,1.00000,0,  100.0,     6.200,     2.500,   1,1.0000
 14310,'3 ',     0.000,     0.000,     4.650,     0.000,1.02000,     0,     7.750, 0.00000E+0, 2.80000E-1, 0.00000E+0, 0.00000E+0,1.00000,0,  100.0,     6.200,     2.500,   1,1.0000
 14310,'4 ',     0.000,     0.000,     4.650,     0.000,1.02000,     0,     7.750, 0.00000E+0, 2.80000E-1, 0.00000E+0, 0.00000E+0,1.00000,0,  100.0,     6.200,     2.500,   1,1.0000
 14320,'1 ',     0.000,     0.000,     4.650,     0.000,1.02000,     0,     7.750, 0.00000E+0, 2.80000E-1, 0.00000E+0, 0.00000E+0,1.00000,0,  100.0,     6.200,     2.500,   1,1.0000
 14330,'1 ',     0.000,     0.000,     4.650,     0.000,1.02000,     0,     7.750, 0.00000E+0, 2.80000E-1, 0.00000E+0, 0.00000E+0,1.00000,0,  100.0,     6.200,     2.500,   1,1.0000
 14330,'2 ',     0.000,     0.000,     4.650,     0.000,1.02000,     0,     7.750, 0.00000E+0, 2.80000E-1, 0.00000E+0, 0.00000E+0,1.00000,0,  100.0,     6.200,     2.500,   1,1.0000
 14330,'3 ',     0.000,     0.000,     4.650,     0.000,1.02000,     0,     7.750, 0.00000E+0, 2.80000E-1, 0.00000E+0, 0.00000E+0,1.00000,0,  100.0,     6.200,     2.500,   1,1.0000
 14330,'4 ',     0.000,     0.000,     4.650,     0.000,1.02000,     0,     7.750, 0.00000E+0, 2.80000E-1, 0.00000E+0, 0.00000E+0,1.00000,0,  100.0,     6.200,     2.500,   1,1.0000
 15110,'1 ',   114.000,    12.658,    92.540,  -113.000,1.02000,     0,   134.000, 1.66000E-3, 1.80000E-1, 0.00000E+0, 0.00000E+0,1.00000,1,  100.0,   114.000,     0.000,   1,1.0000
 15120,'1 ',   114.000,    12.658,    92.540,  -113.000,1.02000,     0,   134.000, 1.66000E-3, 1.80000E-1, 0.00000E+0, 0.00000E+0,1.00000,1,  100.0,   114.000,     0.000,   1,1.0000
 15130,'1 ',   114.000,    12.658,    92.540,  -113.000,1.02000,     0,   134.000, 1.66000E-3, 1.80000E-1, 0.00000E+0, 0.00000E+0,1.00000,1,  100.0,   114.000,     0.000,   1,1.0000
 15810,'1 ',     0.000,     0.000,    24.000,     6.000,1.00000,     0,    31.200, 0.00000E+0, 1.40000E-1, 0.00000E+0, 0.00000E+0,1.00000,1,  100.0,    25.000,    10.000,   1,1.0000
 15820,'1 ',     0.000,     0.000,    24.000,     6.000,1.00000,     0,    31.200, 0.00000E+0, 1.40000E-1, 0.00000E+0, 0.00000E+0,1.00000,1,  100.0,    25.000,    10.000,   1,1.0000
 15830,'1 ',     0.000,     0.000,    24.000,     6.000,1.00000,     0,    31.200, 0.00000E+0, 1.40000E-1, 0.00000E+0, 0.00000E+0,1.00000,1,  100.0,    25.000,    10.000,   1,1.0000
 15840,'1 ',     0.000,     0.000,    24.000,     6.000,1.00000,     0,    31.200, 0.00000E+0, 1.40000E-1, 0.00000E+0, 0.00000E+0,1.00000,1,  100.0,    25.000,    10.000,   1,1.0000
 16020,'1 ',     0.000,     0.000,    40.000,   -17.000,1.03000,     0,    42.500, 0.00000E+0, 1.60000E-1, 0.00000E+0, 0.00000E+0,1.00000,1,  100.0,    35.000,     0.000,   1,1.0000
 16030,'1 ',     0.000,     0.000,    35.000,   -17.000,1.03000,     0,    42.500, 0.00000E+0, 2.80000E-1, 0.00000E+0, 0.00000E+0,1.00000,1,  100.0,    35.000,     0.000,   1,1.0000
 16112,'1 ',     0.000,     0.000,   150.000,  -150.000,1.08000,     0,   500.000, 0.00000E+0, 1.70000E-1, 0.00000E+0, 0.00000E+0,1.00000,1,  100.0,   450.000,     0.000,   1,1.0000
 16410,'1 ',     0.000,     0.000,    42.000,   -10.000,1.02000,     0,   103.000, 0.00000E+0, 1.60000E-1, 0.00000E+0, 0.00000E+0,1.00000,1,  100.0,    90.000,    60.000,   1,1.0000
 18210,'1 ',     0.000,     0.000,     9.000,     0.000,1.00000,     0,    15.000, 0.00000E+0, 9.20000E-2, 0.00000E+0, 0.00000E+0,1.00000,0,  100.0,     0.000,     0.000,   1,1.0000
 18220,'1 ',     0.000,     0.000,     9.000,     0.000,1.00000,     0,    15.000, 0.00000E+0, 9.20000E-2, 0.00000E+0, 0.00000E+0,1.00000,0,  100.0,     0.000,     0.000,   1,1.0000
 18230,'1 ',     0.000,     0.000,    12.000,     0.000,1.00000,     0,    15.000, 0.00000E+0, 9.20000E-2, 0.00000E+0, 0.00000E+0,1.00000,0,  100.0,     0.000,     0.000,   1,1.0000
 18240,'1 ',     0.000,     0.000,    11.000,     0.000,1.00000,     0,    15.000, 0.00000E+0, 1.90000E-1, 0.00000E+0, 0.00000E+0,1.00000,0,  100.0,     0.000,     0.000,   1,1.0000
 18250,'1 ',     0.000,     0.000,    45.000,     0.000,1.02000,     0,    68.750, 0.00000E+0, 1.80000E-1, 0.00000E+0, 0.00000E+0,1.00000,1,  100.0,    55.000,    16.000,   1,1.0000
 18260,'1 ',     0.000,     0.000,    45.000,     0.000,1.02000,     0,    68.750, 0.00000E+0, 1.80000E-1, 0.00000E+0, 0.00000E+0,1.00000,1,  100.0,    55.000,    16.000,   1,1.0000
 18270,'1 ',   300.000,    41.143,   200.000,     0.000,1.00000,     0,   356.500, 0.00000E+0, 2.49000E-1, 0.00000E+0, 0.00000E+0,1.00000,1,  100.0,   300.000,     0.000,   1,1.0000
 19110,'1 ',   330.000,    31.174,   200.000,  -130.000,1.04000, 19115,   450.000, 0.00000E+0, 3.30000E-1, 0.00000E+0, 0.00000E+0,1.00000,1,  100.0,   400.000,     0.000,   1,1.0000
 19120,'1 ',   330.000,    31.174,   200.000,  -130.000,1.04000, 19115,   450.000, 0.00000E+0, 3.30000E-1, 0.00000E+0, 0.00000E+0,1.00000,1,  100.0,   400.000,     0.000,   1,1.0000
 19130,'1 ',   330.000,    31.174,   200.000,  -130.000,1.04000, 19115,   450.000, 0.00000E+0, 3.30000E-1, 0.00000E+0, 0.00000E+0,1.00000,1,  100.0,   400.000,     0.000,   1,1.0000
 19140,'1 ',   330.000,    31.174,   200.000,  -130.000,1.04000, 19115,   450.000, 0.00000E+0, 3.30000E-1, 0.00000E+0, 0.00000E+0,1.00000,1,  100.0,   400.000,     0.000,   1,1.0000
 19150,'1 ',   330.000,    31.174,   200.000,  -130.000,1.04000, 19115,   450.000, 0.00000E+0, 3.30000E-1, 0.00000E+0, 0.00000E+0,1.00000,1,  100.0,   400.000,     0.000,   1,1.0000
 19160,'1 ',   330.000,    31.174,   200.000,  -130.000,1.04000, 19115,   450.000, 0.00000E+0, 3.30000E-1, 0.00000E+0, 0.00000E+0,1.00000,1,  100.0,   400.000,     0.000,   1,1.0000
 21360,'1 ',     0.000,     0.000,    42.000,   -10.000,1.02000,     0,   103.000, 0.00000E+0, 3.30000E-1, 0.00000E+0, 0.00000E+0,1.00000,1,  100.0,    97.000,    60.000,   1,1.0000
 22310,'1 ',     0.000,     0.000,    20.000,     0.000,1.00000,     0,    67.640, 0.00000E+0, 2.31300E-1, 0.00000E+0, 0.00000E+0,1.00000,1,  100.0,    57.500,     0.000,   1,1.0000
 22320,'1 ',     0.000,     0.000,    20.000,     0.000,1.00000,     0,    67.640, 0.00000E+0, 2.31300E-1, 0.00000E+0, 0.00000E+0,1.00000,1,  100.0,    57.500,     0.000,   1,1.0000
 23110,'1 ',   218.198,   102.411,   170.000,   -80.000,1.06000,     0,   267.000, 0.00000E+0, 2.62000E-1, 0.00000E+0, 0.00000E+0,1.00000,1,  100.0,   240.000,     0.000,   1,1.0000
 23120,'1 ',   200.000,   101.258,   170.000,   -80.000,1.06000,     0,   267.000, 0.00000E+0, 2.62000E-1, 0.00000E+0, 0.00000E+0,1.00000,1,  100.0,   240.000,     0.000,   1,1.0000
 23130,'1 ',   200.000,   101.258,   170.000,   -80.000,1.06000,     0,   267.000, 0.00000E+0, 2.62000E-1, 0.00000E+0, 0.00000E+0,1.00000,1,  100.0,   240.000,     0.000,   1,1.0000
 23140,'1 ',   200.000,   101.258,   170.000,   -80.000,1.06000,     0,   267.000, 0.00000E+0, 2.62000E-1, 0.00000E+0, 0.00000E+0,1.00000,1,  100.0,   240.000,     0.000,   1,1.0000
 23150,'1 ',   200.000,   101.258,   170.000,   -80.000,1.06000,     0,   267.000, 0.00000E+0, 2.62000E-1, 0.00000E+0, 0.00000E+0,1.00000,1,  100.0,   240.000,     0.000,   1,1.0000
 23160,'1 ',   200.000,   101.258,   170.000,   -80.000,1.06000,     0,   267.000, 0.00000E+0, 2.62000E-1, 0.00000E+0, 0.00000E+0,1.00000,1,  100.0,   240.000,     0.000,   1,1.0000
 23170,'1 ',   200.000,   159.599,   170.000,   -80.000,1.08000,     0,   267.000, 0.00000E+0, 2.62000E-1, 0.00000E+0, 0.00000E+0,1.00000,1,  100.0,   240.000,     0.000,   1,1.0000
 23180,'1 ',   200.000,   159.599,   170.000,   -80.000,1.08000,     0,   267.000, 0.00000E+0, 2.62000E-1, 0.00000E+0, 0.00000E+0,1.00000,1,  100.0,   240.000,     0.000,   1,1.0000
 23850,'1 ',     0.000,     0.000,    10.000,     0.000,1.01000,     0,    17.000, 0.00000E+0, 1.40000E-1, 0.00000E+0, 0.00000E+0,1.00000,0,  100.0,    13.000,     0.000,   1,1.0000
 23850,'2 ',     0.000,     0.000,    10.000,     0.000,1.01000,     0,    17.000, 0.00000E+0, 1.40000E-1, 0.00000E+0, 0.00000E+0,1.00000,0,  100.0,    13.000,     0.000,   1,1.0000
 24450,'1 ',     0.000,     0.000,    40.000,   -17.000,1.02000,     0,    42.500, 0.00000E+0, 1.60000E-1, 0.00000E+0, 0.00000E+0,1.00000,1,  100.0,    35.000,     0.000,   1,1.0000
 25010,'1 ',     0.000,     0.000,    37.500,    -5.000,1.02000,     0,    62.500, 0.00000E+0, 1.35000E-1, 0.00000E+0, 0.00000E+0,1.00000,1,  100.0,    55.000,    33.000,   1,1.0000
 25020,'1 ',     0.000,     0.000,    37.500,    -5.000,1.02000,     0,    62.500, 0.00000E+0, 1.35000E-1, 0.00000E+0, 0.00000E+0,1.00000,1,  100.0,    55.000,    33.000,   1,1.0000
 26110,'1 ',   200.000,   -20.000,   110.000,   -20.000,1.02500,     0,   245.000, 0.00000E+0, 2.61000E-1, 0.00000E+0, 0.00000E+0,1.00000,1,  100.0,   220.000,    50.000,   1,1.0000
 26120,'1 ',     0.000,     0.000,   110.000,   -20.000,1.02500,     0,   245.000, 0.00000E+0, 2.61000E-1, 0.00000E+0, 0.00000E+0,1.00000,1,  100.0,   220.000,    50.000,   1,1.0000
 27210,'1 ',   300.000,    33.528,   184.000,  -130.000,1.02000,     0,   400.000, 0.00000E+0, 2.80000E-1, 0.00000E+0, 0.00000E+0,1.00000,1,  100.0,   300.000,    80.000,   1,1.0000
 27220,'1 ',     0.000,     0.000,   184.000,  -130.000,1.02000,     0,   400.000, 0.00000E+0, 2.80000E-1, 0.00000E+0, 0.00000E+0,1.00000,1,  100.0,   300.000,     0.000,   1,1.0000
 27310,'1 ',   291.000,    34.028,   186.000,  -130.000,1.02000,     0,   400.000, 0.00000E+0, 1.90000E-1, 0.00000E+0, 0.00000E+0,1.00000,1,  100.0,   300.000,     0.000,   1,1.0000
 27320,'1 ',   300.000,    80.264,   184.000,  -130.000,1.02000,     0,   400.000, 0.00000E+0, 1.90000E-1, 0.00000E+0, 0.00000E+0,1.00000,1,  100.0,   300.000,     0.000,   1,1.0000
 27330,'1 ',   300.000,    80.264,   184.000,  -130.000,1.02000,     0,   400.000, 0.00000E+0, 1.90000E-1, 0.00000E+0, 0.00000E+0,1.00000,1,  100.0,   300.000,     0.000,   1,1.0000
 27510,'1 ',     0.000,     0.000,    32.000,   -17.000,1.02000,     0,    42.500, 0.00000E+0, 3.00000E-1, 0.00000E+0, 0.00000E+0,1.00000,1,  100.0,    35.000,     0.000,   1,1.0000
 28150,'1 ',     0.000,     0.000,    40.000,   -17.000,1.02000,     0,    42.500, 0.00000E+0, 1.60000E-1, 0.00000E+0, 0.00000E+0,1.00000,1,  100.0,    30.000,     0.000,   1,1.0000
 29210,'1 ',   300.000,   154.657,   184.000,  -130.000,1.02000,     0,   400.000, 0.00000E+0, 2.06000E-1, 0.00000E+0, 0.00000E+0,1.00000,1,  100.0,   300.000,     0.000,   1,1.0000
 29220,'1 ',   300.000,   154.657,   184.000,  -130.000,1.02000,     0,   400.000, 0.00000E+0, 2.06000E-1, 0.00000E+0, 0.00000E+0,1.00000,1,  100.0,   300.000,     0.000,   1,1.0000
 29230,'1 ',     0.000,     0.000,   184.000,  -130.000,1.02000,     0,   400.000, 0.00000E+0, 2.06000E-1, 0.00000E+0, 0.00000E+0,1.00000,1,  100.0,   300.000,     0.000,   1,1.0000
 29240,'1 ',     0.000,     0.000,   184.000,  -130.000,1.02000,     0,   400.000, 0.00000E+0, 2.06000E-1, 0.00000E+0, 0.00000E+0,1.00000,1,  100.0,   300.000,     0.000,   1,1.0000
 30110,'1 ',   100.000,    31.339,   120.000,     8.000,1.02000,     0,   142.000, 0.00000E+0, 2.20000E-1, 0.00000E+0, 0.00000E+0,1.00000,1,  100.0,   110.000,    38.000,   1,1.0000
 30120,'1 ',   100.000,    31.401,   120.000,     8.000,1.02000,     0,   142.000, 0.00000E+0, 2.20000E-1, 0.00000E+0, 0.00000E+0,1.00000,1,  100.0,   110.000,    38.000,   1,1.0000
 30130,'1 ',     0.000,     0.000,   120.000,     8.000,1.02000,     0,   142.000, 0.00000E+0, 2.20000E-1, 0.00000E+0, 0.00000E+0,1.00000,1,  100.0,   110.000,    38.000,   1,1.0000
 30140,'1 ',   100.000,    91.511,   120.000,     8.000,1.02000,     0,   142.000, 0.00000E+0, 2.20000E-1, 0.00000E+0, 0.00000E+0,1.00000,1,  100.0,   110.000,    38.000,   1,1.0000
 30150,'1 ',   295.000,   165.403,   190.000,   -50.000,1.02000,     0,   396.000, 0.00000E+0, 2.06000E-1, 0.00000E+0, 0.00000E+0,1.00000,1,  100.0,   300.000,   180.000,   1,1.0000
 30160,'1 ',   295.000,   165.366,   190.000,   -50.000,1.02000,     0,   396.000, 0.00000E+0, 2.06000E-1, 0.00000E+0, 0.00000E+0,1.00000,1,  100.0,   300.000,   180.000,   1,1.0000
 30310,'1 ',     0.000,     0.000,     6.000,    -3.000,1.02000,     0,    15.000, 0.00000E+0, 2.30000E-1, 0.00000E+0, 0.00000E+0,1.00000,1,  100.0,    13.500,     0.000,   1,1.0000
 33020,'1 ',     0.000,     0.000,    30.000,   -20.000,1.02500,     0,    91.100, 3.60000E-3, 1.60000E-1, 0.00000E+0, 0.00000E+0,1.00000,1,  100.0,    82.000,     0.000,   1,1.0000
 33070,'1 ',     0.000,     0.000,    15.000,   -10.000,1.02500,     0,    35.600, 3.60000E-3, 1.40000E-1, 0.00000E+0, 0.00000E+0,1.00000,1,  100.0,    32.000,     0.000,   1,1.0000
 34020,'1 ',     0.000,     0.000,    35.000,   -17.000,1.02000,     0,    42.500, 0.00000E+0, 2.80000E-1, 0.00000E+0, 0.00000E+0,1.00000,1,  100.0,    35.000,     0.000,   1,1.0000
 43210,'1 ',     0.000,     0.000,    70.000,    30.000,1.02000,     0,   147.000, 0.00000E+0, 1.60300E-1, 0.00000E+0, 0.00000E+0,1.00000,1,  100.0,   125.000,    50.000,   1,1.0000
 43220,'1 ',     0.000,     0.000,    70.000,    30.000,1.02000,     0,   147.000, 0.00000E+0, 1.60300E-1, 0.00000E+0, 0.00000E+0,1.00000,0,  100.0,   125.000,    50.000,   1,1.0000
 43230,'1 ',     0.000,     0.000,    70.000,    30.000,1.00000,     0,   147.000, 0.00000E+0, 1.60300E-1, 0.00000E+0, 0.00000E+0,1.00000,0,  100.0,   125.000,    50.000,   1,1.0000
 43910,'1 ',     0.000,     0.000,    15.000,    -5.000,1.00000,     0,    44.418, 0.00000E+0, 1.85000E-1, 0.00000E+0, 0.00000E+0,1.00000,0,  100.0,    33.000,    10.000,   1,1.0000
 43920,'1 ',     0.000,     0.000,    20.000,    -5.000,1.00000,     0,    82.500, 0.00000E+0, 1.30000E-1, 0.00000E+0, 0.00000E+0,1.00000,1,  100.0,    62.000,    20.000,   1,1.0000
 43930,'1 ',     0.000,     0.000,    20.000,    -5.000,1.00000,     0,    82.500, 0.00000E+0, 1.30000E-1, 0.00000E+0, 0.00000E+0,1.00000,1,  100.0,    62.000,    20.000,   1,1.0000
 43980,'1 ',     0.000,     0.000,    23.000,     0.000,0.99000,     0,    43.590, 0.00000E+0, 1.65000E-1, 0.00000E+0, 0.00000E+0,1.00000,0,  100.0,    32.000,    15.000,   1,1.0000
 43990,'1 ',     0.000,     0.000,    23.000,     0.000,0.99000,     0,    43.590, 0.00000E+0, 1.48000E-1, 0.00000E+0, 0.00000E+0,1.00000,0,  100.0,    32.000,    15.000,   1,1.0000
 45310,'1 ',   150.000,    38.033,    93.000,  -132.000,1.03000,     0,   176.500, 2.15000E-3, 1.70000E-1, 0.00000E+0, 0.00000E+0,1.00000,1,  100.0,   150.000,     0.000,   1,1.0000
 45320,'1 ',   150.000,    38.033,    93.000,  -132.000,1.03000,     0,   176.500, 2.15000E-3, 1.70000E-1, 0.00000E+0, 0.00000E+0,1.00000,1,  100.0,   150.000,     0.000,   1,1.0000
 49310,'1 ',     0.000,     0.000,     8.000,     0.000,1.05000,     0,   100.000, 0.00000E+0, 2.10000E-1, 0.00000E+0, 0.00000E+0,1.00000,1,  100.0,    15.000,     0.000,   1,1.0000
 49710,'1 ',     0.000,     0.000,    40.000,     0.000,1.00000,     0,    80.000, 0.00000E+0, 1.36000E-1, 0.00000E+0, 0.00000E+0,1.00000,1,  100.0,    72.000,    40.000,   1,1.0000
 49810,'1 ',    60.000,    60.000,    60.000,   -40.000,0.98000, 49802,   117.600, 0.00000E+0, 1.80000E-1, 0.00000E+0, 0.00000E+0,1.00000,1,  100.0,   110.000,    60.000,   1,1.0000
 49820,'1 ',    60.000,    60.000,    60.000,   -40.000,0.98000, 49802,   117.600, 0.00000E+0, 1.80000E-1, 0.00000E+0, 0.00000E+0,1.00000,1,  100.0,   110.000,    60.000,   1,1.0000
 49830,'1 ',    60.000,    60.000,    60.000,   -40.000,0.98000, 49802,   117.600, 0.00000E+0, 1.80000E-1, 0.00000E+0, 0.00000E+0,1.00000,1,  100.0,   110.000,    60.000,   1,1.0000
 49840,'1 ',     0.000,     0.000,    60.000,   -40.000,0.98000, 49802,   117.600, 0.00000E+0, 1.80000E-1, 0.00000E+0, 0.00000E+0,1.00000,0,  100.0,   100.000,    60.000,   1,1.0000
 50310,'1 ',     0.000,     0.000,    80.000,    20.000,1.02000,     0,   175.000, 0.00000E+0, 2.20000E-1, 0.00000E+0, 0.00000E+0,1.00000,1,  100.0,   150.000,   100.000,   1,1.0000
 50350,'1 ',   100.000,    50.723,    76.380,   -60.000,1.02000,     0,   210.000, 0.00000E+0, 1.41000E-1, 0.00000E+0, 0.00000E+0,1.00000,1,  100.0,   150.000,    60.000,   1,1.0000
 50360,'1 ',   100.000,    50.723,    76.380,   -60.000,1.02000,     0,   210.000, 0.00000E+0, 1.41000E-1, 0.00000E+0, 0.00000E+0,1.00000,1,  100.0,   150.000,    60.000,   1,1.0000
 50370,'1 ',   110.000,    51.133,    76.380,   -60.000,1.02000,     0,   210.000, 0.00000E+0, 1.90000E-1, 0.00000E+0, 0.00000E+0,1.00000,1,  100.0,   150.000,    60.000,   1,1.0000
 51700,'1 ',     0.000,     0.000,    23.000,    -5.000,1.00000,     0,    72.600, 0.00000E+0, 1.35000E-1, 0.00000E+0, 0.00000E+0,1.00000,0,  100.0,    55.000,    30.000,   1,1.0000
 51710,'1 ',     0.000,     0.000,    13.000,    -2.000,1.00000,     0,    28.100, 0.00000E+0, 1.65000E-1, 0.00000E+0, 0.00000E+0,1.00000,1,  100.0,    20.000,     7.000,   1,1.0000
 51720,'1 ',     0.000,     0.000,    13.000,    -2.000,1.00000,     0,    28.100, 0.00000E+0, 1.65000E-1, 0.00000E+0, 0.00000E+0,1.00000,1,  100.0,    18.500,     7.000,   1,1.0000
 51730,'1 ',     0.000,     0.000,    23.000,     0.000,1.00000,     0,    47.488, 0.00000E+0, 1.35000E-1, 0.00000E+0, 0.00000E+0,1.00000,1,  100.0,    33.000,     7.000,   1,1.0000
 51740,'1 ',     0.000,     0.000,    23.000,     0.000,1.00000,     0,    47.488, 0.00000E+0, 1.35000E-1, 0.00000E+0, 0.00000E+0,1.00000,1,  100.0,    33.000,     7.000,   1,1.0000
 51750,'1 ',    25.000,    23.000,    23.000,     0.000,1.00000,     0,    42.500, 0.00000E+0, 1.35000E-1, 0.00000E+0, 0.00000E+0,1.00000,1,  100.0,    33.000,    15.000,   1,1.0000
 51760,'1 ',    25.000,    23.000,    23.000,     0.000,1.00000,     0,    42.500, 0.00000E+0, 1.35000E-1, 0.00000E+0, 0.00000E+0,1.00000,1,  100.0,    33.000,    15.000,   1,1.0000
 51770,'1 ',    25.000,    23.000,    23.000,     0.000,1.00000,     0,    42.500, 0.00000E+0, 1.35000E-1, 0.00000E+0, 0.00000E+0,1.00000,1,  100.0,    33.000,    15.000,   1,1.0000
 51780,'1 ',     0.000,     0.000,    23.000,     0.000,1.00000,     0,    43.200, 0.00000E+0, 1.35000E-1, 0.00000E+0, 0.00000E+0,1.00000,1,  100.0,    33.000,    15.000,   1,1.0000
 51790,'1 ',     0.000,     0.000,    23.000,     0.000,1.00000,     0,    72.600, 0.00000E+0, 1.35000E-1, 0.00000E+0, 0.00000E+0,1.00000,0,  100.0,    58.000,    25.000,   1,1.0000
 53360,'1 ',     0.000,     0.000,     8.000,     0.000,1.01000,     0,    15.000, 0.00000E+0, 2.01000E-1, 0.00000E+0, 0.00000E+0,1.00000,0,  100.0,    24.000,     0.000,   1,1.0000
...