TLTK/Dynamic Thay Huy/Vi du minh hoa/Vd 11 - Voltage collapse/Vn 2015/VN_test_py_.txt

 Ordering network...
 Diagonals = 326   Off-diagonals = 543   Maximum size = 796

  ITER       DELTAP      BUS         DELTAQ      BUS        DELTA/V/      BUS       DELTAANG      BUS
   0         7.0662(    43902   )   40.0990(    79202   )
                                                             0.37769(    45302   )   0.49838(    65522   )
   1         1.6961(    19115   )    3.1050(    49802   )
                                     4.2397(    19115   )
                                                             0.22986(    45310   )   0.35089(    97130   )
   2         0.1607(    23102   )    0.8238(    19110   )
                                     4.9423(    19115   )
                                                             0.07550(    49802   )   0.04200(    90470   )
   3         0.0429(    49202   )    4.0646(    49802   )
                                                             0.08950(    49830   )   0.01851(    49810   )
   4         0.0123(    49802   )    0.1808(    84340   )
                                                             0.01607(    49830   )   0.00641(    65522   )
   5         0.0008(    49202   )    0.0067(    19160   )
                                     0.0404(    19115   )
                                                             0.00027(    55920   )   0.00021(    53472   )
   6         0.0000(    19115   )    0.0001(    19160   )
                                     0.0009(    19115   )


 Reached tolerance in 6 iterations

 Largest mismatch:      0.00 MW      0.04 Mvar      0.04 MVA at bus 19135 [SONLA_NQ    500.00]
 System total absolute mismatch:                    0.18 MVA

 SWING BUS SUMMARY:
   BUS# X-- NAME --X BASKV      PGEN     PMAX    PMIN      QGEN     QMAX    QMIN
  23110 HOABINH1    15.750     218.2    240.0     0.0     102.4    170.0   -80.0

 Generator conversion completed using ZSORCE

 252 loads converted during this step

 252 of 252 loads converted
 Ordering network...
 Diagonals = 327   Off-diagonals = 544   Maximum size = 798

 327 diagonal and 537 off-diagonal elements

 327 diagonal and 537 off-diagonal elements
 Out of file data--switch to terminal input mode

 Generator models use:
  CONS        1-  2494
  STATES      1-  1056

 Stabilizer models use:
  CONS     2495-  3085
  STATES   1057-  1576
  VARS        1-   140
  ICONS       1-   202

 Maximum Exc. Limiter models use:
  CONS     3086-  4735
  VARS      141-   305
  ICONS     203-   367

 Excitation System models use:
  CONS     4736-  6686
  STATES   1577-  2174
  VARS      306-   316

 Turbine Governor models use:
  CONS     6687-  7693
  STATES   2175-  2498
  VARS      317-   471

 Shared Load Relay models use:
  CONS     7694-  7783
  ICONS     368-   369

 Unshared Load models use:
  VARS      472-  1227
  ICONS     370-  2637

 Line Relay models use:
  CONS     7784- 10928
  VARS     1228-  2049
  ICONS    2638-  5388


 SUMMARY OF MODELS READ:

 GENS:  GENROU           GENSAL
         101               90

 STABS: IEE2ST           PSS2A
           4               31

 MAXXL: MAXEX1
         165

 EXSYS: IEEET2           SEXS             EXAC1            EXAC4
          10              106                3               18

        EXDC2            EXST1            EXPIC1           ESAC1A
           1               16               16                6

        ESST4B
          14

 GOVS:  TGOV1            GAST             HYGOV
          35               14               53

 LDREL: LVSHAL           LDSHAR           LVSHAR
           1                7                1

 RELAY: TIOCR1           RXR1             CIROS1
          10               57               56

 NEXT AVAILABLE ADDRESSES ARE:
    CON  STATE    VAR   ICON
  10929   2499   2050   5389

 Only PSS/E supplied models in case. Compilation is not required

 191 Output channels have been added


 Next available addresses are:
   CHANNEL   VAR   ICON
      192   2050   5389

 48 Output channels have been added


 Next available addresses are:
   CHANNEL   VAR   ICON
      240   2098   5437

 5 Output channels have been added


 Next available addresses are:
   CHANNEL   VAR   ICON
      245   2103   5438
   1  0.24E-01  19115 [TDSONLA     500.00]    -0.2339E-05     0.2925E-06
 RELAY RXR1 # 1 - CKT 1  FROM  79105 TO  79165 IS TREATED AS A ZERO IMP. LINE

     PTI INTERACTIVE POWER SYSTEM SIMULATOR--PSS(R)E     SUN, AUG 02 2020   9:25
 PHU TAI CUC DAI - MUA NUOC - NAM 2011
 CHE DO VAN HANH BINH THUONG

 INITIAL CONDITION LOAD FLOW USED 1 ITERATIONS

 ----------------------------- MACHINE INITIAL CONDITIONS -----------------------------
   BUS# X-- NAME --X BASKV ID  ETERM   EFD    POWER    VARS   P.F.  ANGLE   ID     IQ
   3510 SONDONG_    10.500 1  1.0000 2.2069  110.00   35.04 0.9528  37.30 0.6412 0.5092
   3520 SONGDONG    10.500 1  1.0000 2.2069  110.00   35.04 0.9528  37.30 0.6412 0.5092
   7152 MA_GUAN     220.00 1  1.0450 1.4251  300.00   14.19 0.9989  29.14 0.3495 0.6278
  15110 NAHANGH1    13.800 1  1.0200 1.5730  114.00   12.66 0.9939  34.00 0.4266 0.7227
  15120 NAHANGH2    13.800 1  1.0200 1.5730  114.00   12.66 0.9939  34.00 0.4266 0.7227
  15130 NAHANGH3    13.800 1  1.0200 1.5730  114.00   12.66 0.9939  34.00 0.4266 0.7227
  18270 UBI_MR      19.000 1  1.0000 2.0787  300.00   41.14 0.9907  55.13 0.7032 0.4764
  19110 SONLAH1     15.800 1  1.0033 1.4065  330.00   31.17 0.9956  38.63 0.3951 0.6188
  19120 SONLAH2     15.800 1  1.0035 1.4067  330.00   31.17 0.9956  38.67 0.3949 0.6188
  19130 SONLAH3     15.800 1  1.0035 1.4067  330.00   31.17 0.9956  38.67 0.3949 0.6188
  19140 SONLAH4     15.800 1  1.0035 1.4067  330.00   31.17 0.9956  38.67 0.3949 0.6188
  19150 SONLAH5     15.800 1  1.0035 1.4067  330.00   31.17 0.9956  38.67 0.3949 0.6188
  19160 SONLAH6     15.800 1  1.0035 1.4067  330.00   31.17 0.9956  38.67 0.3949 0.6188
  23110 HOABINH1    15.750 1  1.0600 1.8696  218.20  102.41 0.9052  23.25 0.6368 0.5655
  23120 HOABINH2    15.750 1  1.0600 1.8354  200.00  101.26 0.8922  21.17 0.5923 0.5259
  23130 HOABINH3    15.750 1  1.0600 1.8354  200.00  101.26 0.8922  21.17 0.5923 0.5259
  23140 HOABINH4    15.750 1  1.0600 1.8354  200.00  101.26 0.8922  21.17 0.5923 0.5259
  23150 HOABINH5    15.750 1  1.0600 1.8354  200.00  101.26 0.8922  21.17 0.5923 0.5259
  23160 HOABINH6    15.750 1  1.0600 1.8354  200.00  101.26 0.8922  21.17 0.5923 0.5259
  23170 HOABINH7    15.750 1  1.0800 2.1239  200.00  159.60 0.7816  18.56 0.7492 0.4754
  23180 HOABINH8    15.800 1  1.0800 2.1239  200.00  159.60 0.7816  18.56 0.7492 0.4754
  26110 MAOKHES1    10.500 1  1.0943 1.9858  200.00  -20.00 0.9950  54.84 0.5671 0.4903
  27210 CAMPHAS1    19.000 1  1.0200 1.9254  300.00   33.53 0.9938  50.37 0.5760 0.4644
  27310 NDQN1S1     19.000 1  1.0200 1.8683  291.00   34.03 0.9932  48.53 0.5562 0.4543
  27320 NDQN1S2     19.000 1  1.0200 2.0757  300.00   80.26 0.9660  42.35 0.6264 0.4325
  27330 NDQN2S1     19.000 1  1.0200 2.0757  300.00   80.26 0.9660  42.35 0.6264 0.4325
  29210 HAIPH1S1    19.000 1  1.0200 2.4060  300.00  154.66 0.8888  36.14 0.7280 0.3930
  29220 HAIPH2S1    19.000 1  1.0200 2.4060  300.00  154.66 0.8888  36.14 0.7280 0.3930
  30110 PHALAIS1    10.500 1  1.0200 2.3923  100.00   31.34 0.9542  42.22 0.6230 0.3679
  30120 PHALAIS2    10.500 1  1.0200 2.3932  100.00   31.40 0.9541  42.18 0.6232 0.3678
  30140 PHALAIS4    10.500 1  1.0200 3.4372  100.00   91.51 0.7377  26.94 0.8848 0.3049
  30150 PHALAIS5    19.000 1  1.0200 2.4576  295.00  165.40 0.8723  33.59 0.7435 0.3851
  30160 PHALAIS6    19.000 1  1.0200 2.4575  295.00  165.37 0.8723  33.60 0.7434 0.3851
  45310 BANVEH1     10.500 1  1.0300 1.6624  150.00   38.03 0.9693  21.89 0.5634 0.6381
  45320 BANVEH2     10.500 1  1.0300 1.6624  150.00   38.03 0.9693  21.89 0.5634 0.6381
  49810 TRIAN_H1    13.800 1  0.9633 1.9165   60.00   60.00 0.7071 -28.42 0.6393 0.3903
  49820 TRIAN_H2    13.800 1  0.9633 1.9165   60.00   60.00 0.7071 -28.42 0.6393 0.3903
  49830 TRIAN_H3    13.800 1  0.9633 1.9165   60.00   60.00 0.7071 -28.42 0.6393 0.3903
  50350 NTRACHG1    10.500 1  1.0200 2.1221  100.00   50.72 0.8918  -6.04 0.4522 0.2638
  50360 NTRACHG2    10.500 1  1.0200 2.1221  100.00   50.72 0.8918  -6.04 0.4522 0.2638
  50370 NTRACHS3    10.500 1  1.0200 2.0793  110.00   51.13 0.9068  -1.06 0.5017 0.2627
  51750 BARIA_G5    11.000 1  0.9934 2.4565   25.00   23.00 0.7359 -13.07 0.7384 0.3196
  51760 BARIA_G6    11.000 1  0.9934 2.4565   25.00   23.00 0.7359 -13.07 0.7384 0.3196
  51770 BARIA_G7    11.000 1  0.9934 2.4565   25.00   23.00 0.7359 -13.07 0.7384 0.3196
  55910 DNHIM_H1    13.200 1  1.0078 1.9310   35.00   19.00 0.8789 -11.73 0.6320 0.6097
  55920 DNHIM_H2    13.200 1  1.0097 1.9374   35.00   19.00 0.8789 -11.35 0.6302 0.6091
  55930 DNHIM_H3    13.200 1  1.0099 1.9380   35.00   19.00 0.8789 -11.31 0.6301 0.6090
  55940 DNHIM_H4    13.200 1  1.0100 1.9353   35.00   18.91 0.8798 -11.36 0.6282 0.6095
  56310 DONGN4H1    10.500 1  0.9871 1.8298   85.00   42.00 0.8965   1.10 0.7335 0.5758
  56410 DONGN5H1    10.500 1  0.9978 1.9566  135.00   93.00 0.8235  -4.42 0.7782 0.5108
  56510 DAKRTIH1    10.500 1  0.9809 2.2370  140.00   93.00 0.8330  -2.61 0.8281 0.5067
  56910 DNINH-H1    13.800 1  1.0000 1.9536  150.00   86.37 0.8666  -1.40 0.7999 0.5674
  56920 DNINH-H2    13.800 2  1.0000 1.9536  150.00   86.37 0.8666  -1.40 0.7999 0.5674
  57110 HTH_H1      13.800 1  1.0328 1.8880  150.00   73.00 0.8992  -2.44 0.7043 0.5802
  57120 HTH_H2      13.800 1  1.0328 1.8880  150.00   73.00 0.8992  -2.44 0.7043 0.5803
  57310 DAMI_H1     13.800 1  1.0177 2.1061   88.00   42.00 0.9025   1.50 0.7389 0.5650
  57320 DAMY_H2     13.800 1  1.0000 1.8841   88.00   30.06 0.9463   4.07 0.6745 0.6001
  60310 YALIH1      15.750 1  1.0200 2.1678  180.00   79.77 0.9142   3.36 0.7170 0.5628
  60320 YALI_H2     15.750 1  1.0200 2.1678  180.00   79.77 0.9142   3.36 0.7170 0.5628
  60330 YALI_H3     15.750 1  1.0200 2.1678  180.00   79.77 0.9142   3.36 0.7170 0.5628
  60340 YALI_H4     15.750 1  1.0200 2.1678  180.00   79.77 0.9142   3.36 0.7170 0.5628
  82460 TDSCON2     10.500 1  1.0200 1.7977   60.00   34.00 0.8700  -5.95 0.4996 0.4258
  84210 PHUM22G1    15.750 1  1.0200 2.6837  220.00  123.07 0.8727  12.12 0.7087 0.3423
  84220 PHUM22G2    15.750 1  1.0200 2.6837  220.00  123.07 0.8727  12.12 0.7087 0.3423
  84230 PHUM22S3    15.750 1  1.0200 2.9325  260.00  133.35 0.8898  17.62 0.7672 0.3484
  84310 PHUM21G1    15.750 1  1.0000 2.5947  130.00   76.38 0.8622   1.96 0.6619 0.2782
  84320 PHUM21G2    15.750 1  1.0000 2.5947  130.00   76.38 0.8622   1.96 0.6619 0.2782
  84330 PHUM21S3    15.800 1  1.0029 3.4967  140.00  100.00 0.8137   3.29 0.9605 0.3095
  84340 PHUM21G4    10.500 1  0.9985 3.1015  130.00   71.11 0.8773   1.32 0.8061 0.3351
  84350 PHUM21G5    10.500 1  0.9985 3.1015  130.00   71.11 0.8773   1.32 0.8061 0.3351
  84360 PHUM21S6    15.800 1  1.0022 3.3385  150.00  100.00 0.8321   8.23 1.0208 0.2788
  84410 PHUMY1G1    15.000 1  0.9800 2.8853  230.00  146.78 0.8430   1.08 0.8770 0.3741
  84420 PHUMY1G2    15.000 1  0.9800 2.8851  230.00  146.76 0.8430   1.08 0.8770 0.3741
  84430 PHUMY1G3    15.000 1  0.9800 2.8850  230.00  146.75 0.8430   1.09 0.8769 0.3741
  84440 PHUMY1S4    23.000 1  0.9800 3.0401  360.00  190.07 0.8843   5.79 0.8182 0.3539
  84510 PHUMY3G1    15.750 1  0.9800 2.6593  220.00  123.04 0.8728   8.17 0.8371 0.3863
  84520 PHUMY3G2    15.750 1  0.9800 2.6544  220.00  122.37 0.8739   8.35 0.8356 0.3867
  84530 PHUMY3S3    15.750 1  0.9800 3.0547  250.00  116.88 0.9059  15.98 0.8753 0.3535
  84610 PHUMY4G1    15.750 1  1.0200 2.9326  160.00   84.92 0.8833  20.50 0.7817 0.3227
  84620 PHUMY4G2    15.750 1  1.0200 2.9326  160.00   84.92 0.8833  20.50 0.7817 0.3227
  84630 PHUMY4S3    15.750 1  1.0200 2.8868  160.00   98.44 0.8517  21.16 0.8320 0.2775
  89310 OMONS1      19.000 1  1.0200 1.9991  270.00   75.45 0.9631  -1.72 0.5506 0.4110
  89610 ANKHEH1     10.500 1  1.0106 2.4089  170.00   93.00 0.8773   2.96 0.9124 0.5896
  90460 BUONKUOP    10.500 1  1.0200 1.9072  270.00   96.82 0.9413  12.76 0.8007 0.6842
  90470 BUONTSAH    10.500 1  1.0200 1.6597   85.00   19.87 0.9738   1.46 0.4530 0.6965
  90480 SEREPOK3    10.500 1  1.0300 1.5798  215.00   25.16 0.9932  12.96 0.4714 0.6303
  91410 SESAN3H1    13.800 1  1.0100 1.6815  125.00   48.47 0.9324   2.07 0.5744 0.5632
  91510 SSAN3AH1    10.500 1  1.0100 1.7057   50.00   21.68 0.9175   0.32 0.5845 0.5453
  91610 SESAN4H1    10.500 1  1.0200 1.6006  120.00   37.57 0.9543   4.47 0.4939 0.5606
  91620 SESAN4H2    10.500 1  1.0200 1.6006  120.00   37.57 0.9543   4.47 0.4939 0.5606
  91630 SESAN4H3    10.500 1  1.0200 1.6006  120.00   37.57 0.9543   4.47 0.4939 0.5606
  91640 SESAN4A     10.500 1  1.0200 1.5738   63.00   18.98 0.9575   3.46 0.3992 0.4826
  97110 CAMAU1G1    20.000 1  1.0200 1.8806  150.00   56.90 0.9350  -6.23 0.4351 0.3395
  97130 CAMAU1S1    20.000 1  1.0200 2.1838  160.00   59.29 0.9377  -0.26 0.4942 0.3168
  97140 CAMAU2G1    10.500 1  1.0200 1.9967  110.00   55.82 0.8918 -10.41 0.4778 0.3215
  97150 CAMAU2G2    10.500 1  1.0200 1.9927  110.00   55.34 0.8933 -10.27 0.4762 0.3220
   1  0.24E-02  53472 [TAYNINH     220.00]     0.2084E-06     0.1138E-06

 INITIAL CONDITIONS CHECK O.K.

 Channel output file is "C:\Users\C1-116\OneDrive - Hanoi University of Science and Technology\Dao tao cong nghiep\Lop chuyen gia EVN\On dinh - NLTT courses\Vi du minh hoa\Vd 11 - Voltage collapse\Vn 2015\kk.out"

 Channel output file is "C:\Users\C1-116\OneDrive - Hanoi University of Science and Technology\Dao tao cong nghiep\Lop chuyen gia EVN\On dinh - NLTT courses\Vi du minh hoa\Vd 11 - Voltage collapse\Vn 2015\kk.out"

    TIME X- VALUE --X X--------- IDENTIFIER ---------X X- VALUE --X X--------- IDENTIFIER ---------X
 -0.0100   0.0000     SPD   3510[SONDONG_    10.500]1    0.0000     SPD   3520[SONGDONG    10.500]1
     3     0.0000     SPD   7152[MA_GUAN     220.00]1    0.0000     SPD  14210[THACBAH1    10.500]1
     5     0.0000     SPD  14220[THACBAH2    10.500]1    0.0000     SPD  14230[THACBAH3    10.500]1
     7     0.0000     SPD  14310[NOMURA      6.6000]1    0.0000     SPD  14310[NOMURA      6.6000]2
     9     0.0000     SPD  14310[NOMURA      6.6000]3    0.0000     SPD  14310[NOMURA      6.6000]4
    11     0.0000     SPD  14320[NOMURA      6.6000]1    0.0000     SPD  14330[NOMURA      6.6000]1
    13     0.0000     SPD  14330[NOMURA      6.6000]2    0.0000     SPD  14330[NOMURA      6.6000]3
    15     0.0000     SPD  14330[NOMURA      6.6000]4    0.0000     SPD  15110[NAHANGH1    13.800]1
    17     0.0000     SPD  15120[NAHANGH2    13.800]1    0.0000     SPD  15130[NAHANGH3    13.800]1
    19     0.0000     SPD  15810[NBINH_S1    6.3000]1    0.0000     SPD  15820[NBINH_S2    6.3000]1
    21     0.0000     SPD  15830[NBINH_S3    6.3000]1    0.0000     SPD  15840[NBINH_S4    6.3000]1
    23     0.0000     SPD  16020[COCSAN      10.500]1    0.0000     SPD  16030[NGOIPHAT    10.500]1
    25     0.0000     SPD  16112[TAN_KIEU    220.00]1    0.0000     SPD  16410[NALEH1      10.500]1
    27     0.0000     SPD  18210[UONBI_S1    6.3000]1    0.0000     SPD  18220[UONBI_S2    6.3000]1
    29     0.0000     SPD  18230[UONBI_S3    6.3000]1    0.0000     SPD  18240[UONBI_S4    6.3000]1
    31     0.0000     SPD  18250[UONBI_S5    6.3000]1    0.0000     SPD  18260[UONBI_S6    6.3000]1
    33     0.0000     SPD  18270[UBI_MR      19.000]1    0.0000     SPD  19110[SONLAH1     15.800]1
    35     0.0000     SPD  19120[SONLAH2     15.800]1    0.0000     SPD  19130[SONLAH3     15.800]1
    37     0.0000     SPD  19140[SONLAH4     15.800]1    0.0000     SPD  19150[SONLAH5     15.800]1
    39     0.0000     SPD  19160[SONLAH6     15.800]1    0.0000     SPD  21360[TDCUABAT    10.500]1
    41     0.0000     SPD  22310[CAONGAS1    10.500]1    0.0000     SPD  22320[CAONGAS2    10.500]1
    43     0.0000     SPD  23110[HOABINH1    15.750]1    0.0000     SPD  23120[HOABINH2    15.750]1
    45     0.0000     SPD  23130[HOABINH3    15.750]1    0.0000     SPD  23140[HOABINH4    15.750]1
    47     0.0000     SPD  23150[HOABINH5    15.750]1    0.0000     SPD  23160[HOABINH6    15.750]1
    49     0.0000     SPD  23170[HOABINH7    15.750]1    0.0000     SPD  23180[HOABINH8    15.800]1
    51     0.0000     SPD  23850[TIEN_HAI    10.500]1    0.0000     SPD  23850[TIEN_HAI    10.500]2
    53     0.0000     SPD  24450[VANCHAN     10.500]1    0.0000     SPD  25010[NADUO_S1    6.3000]1
    55     0.0000     SPD  25020[NADUO_S2    6.3000]1    0.0000     SPD  26110[MAOKHES1    10.500]1
    57     0.0000     SPD  26120[MAOKHES2    10.500]1    0.0000     SPD  27210[CAMPHAS1    19.000]1
    59     0.0000     SPD  27220[CAMPHAS2    19.000]1    0.0000     SPD  27310[NDQN1S1     19.000]1
    61     0.0000     SPD  27320[NDQN1S2     19.000]1    0.0000     SPD  27330[NDQN2S1     19.000]1
    63     0.0000     SPD  27510[NAMCHIE2    10.500]1    0.0000     SPD  28150[HUONGSON    10.500]1
    65     0.0000     SPD  29210[HAIPH1S1    19.000]1    0.0000     SPD  29220[HAIPH2S1    19.000]1
    67     0.0000     SPD  29230[HAIPH2S1    19.000]1    0.0000     SPD  29240[HAIPH2S2    19.000]1
    69     0.0000     SPD  30110[PHALAIS1    10.500]1    0.0000     SPD  30120[PHALAIS2    10.500]1
    71     0.0000     SPD  30130[PHALAIS3    10.000]1    0.0000     SPD  30140[PHALAIS4    10.500]1
    73     0.0000     SPD  30150[PHALAIS5    19.000]1    0.0000     SPD  30160[PHALAIS6    19.000]1
    75     0.0000     SPD  30310[TDNAMNGA    10.500]1    0.0000     SPD  33020[THAI AN     10.500]1
    77     0.0000     SPD  33070[THUANHOA    10.500]1    0.0000     SPD  34020[SUPAN       10.500]1
    79     0.0000     SPD  43210[HPHC_S1     13.800]1    0.0000     SPD  43220[HPHC_S2     13.800]1
    81     0.0000     SPD  43230[HPHC_S3     13.800]1    0.0000     SPD  43910[THDUC_S1    13.800]1
    83     0.0000     SPD  43920[THDUC_S2    13.800]1    0.0000     SPD  43930[THDUC_S3    13.800]1
    85     0.0000     SPD  43980[THDUC_G4    11.000]1    0.0000     SPD  43990[THDUC_G5    11.000]1
    87     0.0000     SPD  45310[BANVEH1     10.500]1    0.0000     SPD  45320[BANVEH2     10.500]1
    89     0.0000     SPD  49310[AMATA       10.000]1    0.0000     SPD  49710[VE_DAN      13.000]1
    91     0.0000     SPD  49810[TRIAN_H1    13.800]1    0.0000     SPD  49820[TRIAN_H2    13.800]1
    93     0.0000     SPD  49830[TRIAN_H3    13.800]1    0.0000     SPD  49840[TRIAN_H4    13.800]1
    95     0.0000     SPD  50310[FORMOSA     13.800]1    0.0000     SPD  50350[NTRACHG1    10.500]1
    97     0.0000     SPD  50360[NTRACHG2    10.500]1    0.0000     SPD  50370[NTRACHS3    10.500]1
    99     0.0000     SPD  51700[BRIA_S10    11.000]1    0.0000     SPD  51710[BARIA_G1    11.500]1
   101     0.0000     SPD  51720[BARIA_G2    11.500]1    0.0000     SPD  51730[BARIA_G3    11.000]1
   103     0.0000     SPD  51740[BARIA_G4    11.000]1    0.0000     SPD  51750[BARIA_G5    11.000]1
   105     0.0000     SPD  51760[BARIA_G6    11.000]1    0.0000     SPD  51770[BARIA_G7    11.000]1
   107     0.0000     SPD  51780[BARIA_G8    11.000]1    0.0000     SPD  51790[BARIA_S9    11.000]1
   109     0.0000     SPD  53360[BOURBON     11.000]1    0.0000     SPD  53510[CADON_H1    11.000]1
   111     0.0000     SPD  53520[CADON_H2    11.000]1    0.0000     SPD  55210[DUNGQUS1    10.500]1
   113     0.0000     SPD  55610[SROKPM_1    11.000]1    0.0000     SPD  55620[SROKPM_2    11.000]1
   115     0.0000     SPD  55910[DNHIM_H1    13.200]1    0.0000     SPD  55920[DNHIM_H2    13.200]1
   117     0.0000     SPD  55930[DNHIM_H3    13.200]1    0.0000     SPD  55940[DNHIM_H4    13.200]1
   119     0.0000     SPD  55960[SPHA_H1     6.0000]1    0.0000     SPD  56210[DONGN3H1    10.500]1
   121     0.0000     SPD  56310[DONGN4H1    10.500]1    0.0000     SPD  56410[DONGN5H1    10.500]1
   123     0.0000     SPD  56420[DONGNAI2    10.500]1    0.0000     SPD  56510[DAKRTIH1    10.500]1
   125     0.0000     SPD  56910[DNINH-H1    13.800]1    0.0000     SPD  56920[DNINH-H2    13.800]2
   127     0.0000     SPD  57110[HTH_H1      13.800]1    0.0000     SPD  57120[HTH_H2      13.800]1
   129     0.0000     SPD  57310[DAMI_H1     13.800]1    0.0000     SPD  57320[DAMY_H2     13.800]1
   131     0.0000     SPD  60310[YALIH1      15.750]1    0.0000     SPD  60320[YALI_H2     15.750]1
   133     0.0000     SPD  60330[YALI_H3     15.750]1    0.0000     SPD  60340[YALI_H4     15.750]1
   135     0.0000     SPD  60710[CANTH_S4    13.000]1    0.0000     SPD  60720[CANTH_B1    11.000]1
   137     0.0000     SPD  60730[CANTH_B2    11.000]1    0.0000     SPD  73110[THACMOH1    13.800]1
   139     0.0000     SPD  73120[THACMOH2    13.800]1    0.0000     SPD  81110[RQ_H1       10.500]1
   141     0.0000     SPD  81120[RQ_H2       10.500]1    0.0000     SPD  81640[BINHDIEN    13.800]1
   143     0.0000     SPD  82460[TDSCON2     10.500]1    0.0000     SPD  82470[TDAVUONG    10.500]1
   145     0.0000     SPD  84210[PHUM22G1    15.750]1    0.0000     SPD  84220[PHUM22G2    15.750]1
   147     0.0000     SPD  84230[PHUM22S3    15.750]1    0.0000     SPD  84310[PHUM21G1    15.750]1
   149     0.0000     SPD  84320[PHUM21G2    15.750]1    0.0000     SPD  84330[PHUM21S3    15.800]1
   151     0.0000     SPD  84340[PHUM21G4    10.500]1    0.0000     SPD  84350[PHUM21G5    10.500]1
   153     0.0000     SPD  84360[PHUM21S6    15.800]1    0.0000     SPD  84410[PHUMY1G1    15.000]1
   155     0.0000     SPD  84420[PHUMY1G2    15.000]1    0.0000     SPD  84430[PHUMY1G3    15.000]1
   157     0.0000     SPD  84440[PHUMY1S4    23.000]1    0.0000     SPD  84510[PHUMY3G1    15.750]1
   159     0.0000     SPD  84520[PHUMY3G2    15.750]1    0.0000     SPD  84530[PHUMY3S3    15.750]1
   161     0.0000     SPD  84610[PHUMY4G1    15.750]1    0.0000     SPD  84620[PHUMY4G2    15.750]1
   163     0.0000     SPD  84630[PHUMY4S3    15.750]1    0.0000     SPD  86510[VISON_H1    13.800]1
   165     0.0000     SPD  86520[VISON_H2    13.800]1    0.0000     SPD  87510[SHINH_H1    10.500]1
   167     0.0000     SPD  87520[SHINH_H2    10.500]1    0.0000     SPD  89210[CANTHOG1    11.000]1
   169     0.0000     SPD  89220[CANTHOG2    11.000]1    0.0000     SPD  89230[CANTHOG3    11.000]1
   171     0.0000     SPD  89240[CANTHOG4    11.000]1    0.0000     SPD  89310[OMONS1      19.000]1
   173     0.0000     SPD  89500[PREIKRON    10.500]1    0.0000     SPD  89610[ANKHEH1     10.500]1
   175     0.0000     SPD  90460[BUONKUOP    10.500]1    0.0000     SPD  90470[BUONTSAH    10.500]1
   177     0.0000     SPD  90480[SEREPOK3    10.500]1    0.0000     SPD  91410[SESAN3H1    13.800]1
   179     0.0000     SPD  91420[SESAN3H2    13.800]1    0.0000     SPD  91510[SSAN3AH1    10.500]1
   181     0.0000     SPD  91520[SSAN3AH2    10.500]1    0.0000     SPD  91610[SESAN4H1    10.500]1
   183     0.0000     SPD  91620[SESAN4H2    10.500]1    0.0000     SPD  91630[SESAN4H3    10.500]1
   185     0.0000     SPD  91640[SESAN4A     10.500]1    0.0000     SPD  97110[CAMAU1G1    20.000]1
   187     0.0000     SPD  97120[CAMAU1G2    20.000]1    0.0000     SPD  97130[CAMAU1S1    20.000]1
   189     0.0000     SPD  97140[CAMAU2G1    10.500]1    0.0000     SPD  97150[CAMAU2G2    10.500]1
   191     0.0000     SPD  97160[CAMAU2S1    10.500]1    1.0397     VOLT  19105 [SONLA       500.00]
   193     1.0400     VOLT  19115 [TDSONLA     500.00]   1.0397     VOLT  19125 [SONLA_HB    500.00]
   195     1.0400     VOLT  19135 [SONLA_NQ    500.00]   1.0251     VOLT  23105 [HOABINH     500.00]
   197     1.0251     VOLT  23115 [HB-NQ       500.00]   1.0251     VOLT  23155 [HOABI_SL    500.00]
   199     1.0468     VOLT  27305 [QUANGNIN    500.00]   1.0330     VOLT  36205 [NHOQUAN     500.00]
   201     1.0238     VOLT  36215 [NQ_HT_1     500.00]   1.0248     VOLT  36225 [NQ-HT_2     500.00]
   203     1.0330     VOLT  36255 [NHOQU_SL    500.00]   1.0356     VOLT  42405 [THUONGTI    500.00]
   205     1.0074     VOLT  46205 [HATINH      500.00]  0.98522     VOLT  46215 [HT_DN_1     500.00]
   207    0.98488     VOLT  46225 [HT_DN_2     500.00]   1.0046     VOLT  46255 [HT_NQ_1     500.00]
   209     1.0084     VOLT  46265 [HT_NQ_2     500.00]  0.99012     VOLT  53105 [DANANG      500.00]
   211    0.96763     VOLT  53115 [DN_PK_1     500.00]  0.97124     VOLT  53125 [DN_PK_2     500.00]
   213    0.99180     VOLT  53155 [DN_HT_1     500.00]  0.99087     VOLT  53165 [DN_HT_2     500.00]
   215    0.98876     VOLT  55105 [DOCSOI      500.00]  0.95580     VOLT  56105 [DAKNONG     500.00]
   217    0.95562     VOLT  56115 [DAKNO_PL    500.00]  0.93416     VOLT  56155 [DAKNO_PK    500.00]
   219    0.99688     VOLT  60205 [PLEIKU      500.00]   1.0001     VOLT  60215 [PEIKU_PL    500.00]
   221    0.97641     VOLT  60225 [PEIKU_DL    500.00]  0.99894     VOLT  60255 [PK_DN_1     500.00]
   223     1.0007     VOLT  60265 [PK_DN_2     500.00]   1.0004     VOLT  60305 [YALI        500.00]
   225    0.95128     VOLT  70205 [DILINH      500.00]  0.95629     VOLT  70215 [DILIN_TD    500.00]
   227    0.94752     VOLT  70255 [DILIN_PK    500.00]  0.92562     VOLT  77105 [TANDINH     500.00]
   229    0.91773     VOLT  77155 [TANHD_DL    500.00]  0.94472     VOLT  79105 [PHULAM      500.00]
   231    0.90559     VOLT  79155 [PL_PK_1     500.00]  0.94472     VOLT  79165 [PHULA_TD    500.00]
   233    0.95518     VOLT  79205 [NHABE       500.00]  0.97251     VOLT  84105 [PHUMY       500.00]
   235    0.97274     VOLT  84205 [PHUMY22     500.00]  0.97288     VOLT  84515 [PHUMY3      500.00]
   237    0.97269     VOLT  84525 [PHUMY3      500.00]  0.97263     VOLT  84605 [PHUMY4      500.00]
   239    0.96828     VOLT  90305 [NDOMON      500.00]   16433.     PMECH FOR ALL BUSES
   241     16430.     PELEC FOR ALL BUSES                0.0000     PACCL FOR ALL BUSES
   243     15887.     PLOAD FOR ALL BUSES                543.24     PE-PL FOR ALL BUSES

  1.0000  3.05371E-08  3.05371E-08  2.44042E-08   0.0000       0.0000       0.0000
     7     0.0000       0.0000       0.0000       0.0000       0.0000       0.0000
    13     0.0000       0.0000       0.0000      2.25095E-08  2.25095E-08  2.25095E-08
    19     0.0000       0.0000       0.0000       0.0000       0.0000       0.0000
    25     0.0000       0.0000       0.0000       0.0000       0.0000       0.0000
    31     0.0000       0.0000      2.06863E-08  1.91498E-08  1.72615E-08  1.72615E-08
    37    1.72615E-08  1.72615E-08  1.72615E-08   0.0000       0.0000       0.0000
    43    1.45317E-08  1.54143E-08  1.54143E-08  1.54143E-08  1.54143E-08  1.54143E-08
    49    8.00475E-09  8.00475E-09   0.0000       0.0000       0.0000       0.0000
    55     0.0000      2.34796E-08   0.0000      1.88237E-08   0.0000      3.08103E-08
    61    1.27098E-08  1.90866E-08   0.0000       0.0000      1.97440E-08  1.97440E-08
    67     0.0000       0.0000      1.76853E-08  2.61947E-08   0.0000      2.46261E-08
    73    1.78156E-08  2.13875E-08   0.0000       0.0000       0.0000       0.0000
    79     0.0000       0.0000       0.0000       0.0000       0.0000       0.0000
    85     0.0000       0.0000      2.09766E-08  2.09766E-08   0.0000       0.0000
    91    1.02113E-08  1.02113E-08  9.59001E-09   0.0000       0.0000      1.11833E-08
    97    1.11833E-08  1.19422E-08   0.0000       0.0000       0.0000       0.0000
   103     0.0000      1.25284E-08  1.25284E-08  1.25284E-08   0.0000       0.0000
   109     0.0000       0.0000       0.0000       0.0000       0.0000       0.0000
   115    1.51479E-08  1.47279E-08  1.48329E-08  1.31790E-08   0.0000       0.0000
   121    1.09398E-08  1.48601E-08   0.0000      1.13344E-08  9.21573E-09  1.02009E-08
   127    1.22740E-08  1.21098E-08  1.42671E-08  1.67836E-08  1.20658E-08  1.20658E-08
   133    1.20658E-08  1.20658E-08   0.0000       0.0000       0.0000       0.0000
   139     0.0000       0.0000       0.0000       0.0000      1.33159E-08   0.0000
   145    1.11759E-08  1.11759E-08  1.96987E-08  9.07480E-09  1.33365E-08  1.00826E-08
   151    1.55398E-08  1.28966E-08  8.70654E-09  1.35400E-08  1.47221E-08  1.62982E-08
   157    1.54378E-08  1.70453E-08  1.46752E-08  1.77204E-08  8.18073E-09  8.18073E-09
   163    2.43528E-08   0.0000       0.0000       0.0000       0.0000       0.0000
   169     0.0000       0.0000       0.0000      1.37836E-08   0.0000      1.55551E-08
   175    1.14119E-08  1.36253E-08  1.66647E-08  8.57946E-09   0.0000      1.20892E-08
   181     0.0000      1.41828E-08  1.41828E-08  1.41828E-08  1.21072E-08  1.03647E-08
   187     0.0000      1.54903E-08  8.73144E-09  1.50927E-08   0.0000       1.0397
   193     1.0400       1.0397       1.0400       1.0251       1.0251       1.0251
   199     1.0468       1.0330       1.0238       1.0248       1.0330       1.0356
   205     1.0074      0.98522      0.98488       1.0046       1.0084      0.99012
   211    0.96763      0.97124      0.99180      0.99087      0.98876      0.95580
   217    0.95562      0.93416      0.99688       1.0001      0.97641      0.99894
   223     1.0007       1.0004      0.95128      0.95629      0.94752      0.92562
   229    0.91773      0.94472      0.90559      0.94472      0.95518      0.97251
   235    0.97274      0.97288      0.97269      0.97263      0.96828       16433.
   241     16430.      5.85938E-03   15887.       543.23

 Output completed

 *** Status of circuit "1" from 77105 [TANDINH     500.00] to 77155 [TANHD_DL    500.00] is set to out-of-service ***

 *** Status of circuit "1" from 70205 [DILINH      500.00] to 70215 [DILIN_TD    500.00] is set to out-of-service ***

 *** Status of circuit "1" from 70215 [DILIN_TD    500.00] to 77155 [TANHD_DL    500.00] is set to out-of-service ***

...